tests/data/frequency_support_and_droop_test_project/DSSfiles/Transformers.dss
New Transformer.tr(r:p2rdt12626-p2rdt12626lv) phases=1 windings=3 %loadloss=0.798816 %Noloadloss=0.472 normhkva=27.5 wdg=1 conn=wye bus=p2rdt12626.2 Kv=14.434 kva=25.0 EmergHKVA=37.5 %r=0.266272 wdg=2 conn=wye bus=p2rdt12626lv.1.0 Kv=0.12 kva=25.0 EmergHKVA=37.5 %r=0.532544 wdg=3 conn=wye bus=p2rdt12626lv.0.2 Kv=0.12 kva=25.0 EmergHKVA=37.5 %r=0.532544 XHL=2.4 XLT=2.4 XHT=1.6

New Transformer.tr(r:p2rdt12627-p2rdt12627lv) phases=1 windings=3 %loadloss=1.248151 %Noloadloss=0.68 normhkva=11.0 wdg=1 conn=wye bus=p2rdt12627.3 Kv=14.434 kva=10.0 EmergHKVA=15.0 %r=0.41605 wdg=2 conn=wye bus=p2rdt12627lv.1.0 Kv=0.12 kva=10.0 EmergHKVA=15.0 %r=0.832101 wdg=3 conn=wye bus=p2rdt12627lv.0.2 Kv=0.12 kva=10.0 EmergHKVA=15.0 %r=0.832101 XHL=1.08 XLT=1.08 XHT=0.72

New Transformer.tr(r:p2rdt12635-p2rdt12635lv) phases=1 windings=3 %loadloss=0.798816 %Noloadloss=0.472 normhkva=27.5 wdg=1 conn=wye bus=p2rdt12635.2 Kv=14.434 kva=25.0 EmergHKVA=37.5 %r=0.266272 wdg=2 conn=wye bus=p2rdt12635lv.1.0 Kv=0.12 kva=25.0 EmergHKVA=37.5 %r=0.532544 wdg=3 conn=wye bus=p2rdt12635lv.0.2 Kv=0.12 kva=25.0 EmergHKVA=37.5 %r=0.532544 XHL=2.4 XLT=2.4 XHT=1.6

New Transformer.tr(r:p2rdt12636-p2rdt12636lv) phases=1 windings=3 %loadloss=0.798816 %Noloadloss=0.472 normhkva=27.5 wdg=1 conn=wye bus=p2rdt12636.1 Kv=14.434 kva=25.0 EmergHKVA=37.5 %r=0.266272 wdg=2 conn=wye bus=p2rdt12636lv.1.0 Kv=0.12 kva=25.0 EmergHKVA=37.5 %r=0.532544 wdg=3 conn=wye bus=p2rdt12636lv.0.2 Kv=0.12 kva=25.0 EmergHKVA=37.5 %r=0.532544 XHL=2.4 XLT=2.4 XHT=1.6

New Transformer.tr(r:p2rdt12637-p2rdt12637lv) phases=1 windings=3 %loadloss=0.798816 %Noloadloss=0.37 normhkva=55.0 wdg=1 conn=wye bus=p2rdt12637.2 Kv=14.434 kva=50.0 EmergHKVA=75.0 %r=0.266272 wdg=2 conn=wye bus=p2rdt12637lv.1.0 Kv=0.12 kva=50.0 EmergHKVA=75.0 %r=0.532544 wdg=3 conn=wye bus=p2rdt12637lv.0.2 Kv=0.12 kva=50.0 EmergHKVA=75.0 %r=0.532544 XHL=2.4 XLT=2.4 XHT=1.6

New Transformer.tr(r:p2rdt12638-p2rdt12638lv) phases=1 windings=3 %loadloss=0.798816 %Noloadloss=0.37 normhkva=55.0 wdg=1 conn=wye bus=p2rdt12638.3 Kv=14.434 kva=50.0 EmergHKVA=75.0 %r=0.266272 wdg=2 conn=wye bus=p2rdt12638lv.1.0 Kv=0.12 kva=50.0 EmergHKVA=75.0 %r=0.532544 wdg=3 conn=wye bus=p2rdt12638lv.0.2 Kv=0.12 kva=50.0 EmergHKVA=75.0 %r=0.532544 XHL=2.4 XLT=2.4 XHT=1.6

New Transformer.tr(r:p2rdt12639-p2rdt12639lv) phases=1 windings=3 %loadloss=0.49926 %Noloadloss=0.38 normhkva=82.5 wdg=1 conn=wye bus=p2rdt12639.3 Kv=14.434 kva=75.0 EmergHKVA=112.5 %r=0.16642 wdg=2 conn=wye bus=p2rdt12639lv.1.0 Kv=0.12 kva=75.0 EmergHKVA=112.5 %r=0.33284 wdg=3 conn=wye bus=p2rdt12639lv.0.2 Kv=0.12 kva=75.0 EmergHKVA=112.5 %r=0.33284 XHL=2.4 XLT=2.4 XHT=1.6

New Transformer.tr(r:p2rdt12640-p2rdt12640lv) phases=1 windings=3 %loadloss=1.248151 %Noloadloss=0.68 normhkva=11.0 wdg=1 conn=wye bus=p2rdt12640.2 Kv=14.434 kva=10.0 EmergHKVA=15.0 %r=0.41605 wdg=2 conn=wye bus=p2rdt12640lv.1.0 Kv=0.12 kva=10.0 EmergHKVA=15.0 %r=0.832101 wdg=3 conn=wye bus=p2rdt12640lv.0.2 Kv=0.12 kva=10.0 EmergHKVA=15.0 %r=0.832101 XHL=1.08 XLT=1.08 XHT=0.72

New Transformer.tr(r:p2rdt12641-p2rdt12641lv) phases=1 windings=3 %loadloss=1.248151 %Noloadloss=0.68 normhkva=11.0 wdg=1 conn=wye bus=p2rdt12641.2 Kv=14.434 kva=10.0 EmergHKVA=15.0 %r=0.41605 wdg=2 conn=wye bus=p2rdt12641lv.1.0 Kv=0.12 kva=10.0 EmergHKVA=15.0 %r=0.832101 wdg=3 conn=wye bus=p2rdt12641lv.0.2 Kv=0.12 kva=10.0 EmergHKVA=15.0 %r=0.832101 XHL=1.08 XLT=1.08 XHT=0.72

New Transformer.tr(r:p2rdt12642-p2rdt12642lv) phases=1 windings=3 %loadloss=1.248151 %Noloadloss=0.68 normhkva=11.0 wdg=1 conn=wye bus=p2rdt12642.2 Kv=14.434 kva=10.0 EmergHKVA=15.0 %r=0.41605 wdg=2 conn=wye bus=p2rdt12642lv.1.0 Kv=0.12 kva=10.0 EmergHKVA=15.0 %r=0.832101 wdg=3 conn=wye bus=p2rdt12642lv.0.2 Kv=0.12 kva=10.0 EmergHKVA=15.0 %r=0.832101 XHL=1.08 XLT=1.08 XHT=0.72

New Transformer.tr(r:p2rdt12643-p2rdt12643lv) phases=1 windings=3 %loadloss=0.798816 %Noloadloss=0.472 normhkva=27.5 wdg=1 conn=wye bus=p2rdt12643.3 Kv=14.434 kva=25.0 EmergHKVA=37.5 %r=0.266272 wdg=2 conn=wye bus=p2rdt12643lv.1.0 Kv=0.12 kva=25.0 EmergHKVA=37.5 %r=0.532544 wdg=3 conn=wye bus=p2rdt12643lv.0.2 Kv=0.12 kva=25.0 EmergHKVA=37.5 %r=0.532544 XHL=2.4 XLT=2.4 XHT=1.6

New Transformer.tr(r:p2rdt12654-p2rdt12654lv) phases=1 windings=3 %loadloss=1.248151 %Noloadloss=0.68 normhkva=11.0 wdg=1 conn=wye bus=p2rdt12654.2 Kv=14.434 kva=10.0 EmergHKVA=15.0 %r=0.41605 wdg=2 conn=wye bus=p2rdt12654lv.1.0 Kv=0.12 kva=10.0 EmergHKVA=15.0 %r=0.832101 wdg=3 conn=wye bus=p2rdt12654lv.0.2 Kv=0.12 kva=10.0 EmergHKVA=15.0 %r=0.832101 XHL=1.08 XLT=1.08 XHT=0.72

New Transformer.tr(r:p2rdt12655-p2rdt12655lv) phases=1 windings=3 %loadloss=1.248151 %Noloadloss=0.68 normhkva=11.0 wdg=1 conn=wye bus=p2rdt12655.2 Kv=14.434 kva=10.0 EmergHKVA=15.0 %r=0.41605 wdg=2 conn=wye bus=p2rdt12655lv.1.0 Kv=0.12 kva=10.0 EmergHKVA=15.0 %r=0.832101 wdg=3 conn=wye bus=p2rdt12655lv.0.2 Kv=0.12 kva=10.0 EmergHKVA=15.0 %r=0.832101 XHL=1.08 XLT=1.08 XHT=0.72

New Transformer.tr(r:p2rdt12656-p2rdt12656lv) phases=1 windings=3 %loadloss=0.798816 %Noloadloss=0.472 normhkva=27.5 wdg=1 conn=wye bus=p2rdt12656.2 Kv=14.434 kva=25.0 EmergHKVA=37.5 %r=0.266272 wdg=2 conn=wye bus=p2rdt12656lv.1.0 Kv=0.12 kva=25.0 EmergHKVA=37.5 %r=0.532544 wdg=3 conn=wye bus=p2rdt12656lv.0.2 Kv=0.12 kva=25.0 EmergHKVA=37.5 %r=0.532544 XHL=2.4 XLT=2.4 XHT=1.6

New Transformer.tr(r:p2rdt12657-p2rdt12657lv) phases=1 windings=3 %loadloss=1.248151 %Noloadloss=0.68 normhkva=11.0 wdg=1 conn=wye bus=p2rdt12657.1 Kv=14.434 kva=10.0 EmergHKVA=15.0 %r=0.41605 wdg=2 conn=wye bus=p2rdt12657lv.1.0 Kv=0.12 kva=10.0 EmergHKVA=15.0 %r=0.832101 wdg=3 conn=wye bus=p2rdt12657lv.0.2 Kv=0.12 kva=10.0 EmergHKVA=15.0 %r=0.832101 XHL=1.08 XLT=1.08 XHT=0.72

New Transformer.tr(r:p2rdt12658-p2rdt12658lv) phases=1 windings=3 %loadloss=0.798816 %Noloadloss=0.37 normhkva=55.0 wdg=1 conn=wye bus=p2rdt12658.3 Kv=14.434 kva=50.0 EmergHKVA=75.0 %r=0.266272 wdg=2 conn=wye bus=p2rdt12658lv.1.0 Kv=0.12 kva=50.0 EmergHKVA=75.0 %r=0.532544 wdg=3 conn=wye bus=p2rdt12658lv.0.2 Kv=0.12 kva=50.0 EmergHKVA=75.0 %r=0.532544 XHL=2.4 XLT=2.4 XHT=1.6

New Transformer.tr(r:p2rdt12659-p2rdt12659lv) phases=1 windings=3 %loadloss=1.248151 %Noloadloss=0.68 normhkva=11.0 wdg=1 conn=wye bus=p2rdt12659.3 Kv=14.434 kva=10.0 EmergHKVA=15.0 %r=0.41605 wdg=2 conn=wye bus=p2rdt12659lv.1.0 Kv=0.12 kva=10.0 EmergHKVA=15.0 %r=0.832101 wdg=3 conn=wye bus=p2rdt12659lv.0.2 Kv=0.12 kva=10.0 EmergHKVA=15.0 %r=0.832101 XHL=1.08 XLT=1.08 XHT=0.72

New Transformer.tr(r:p2rdt12660-p2rdt12660lv) phases=1 windings=3 %loadloss=1.248151 %Noloadloss=0.68 normhkva=11.0 wdg=1 conn=wye bus=p2rdt12660.3 Kv=14.434 kva=10.0 EmergHKVA=15.0 %r=0.41605 wdg=2 conn=wye bus=p2rdt12660lv.1.0 Kv=0.12 kva=10.0 EmergHKVA=15.0 %r=0.832101 wdg=3 conn=wye bus=p2rdt12660lv.0.2 Kv=0.12 kva=10.0 EmergHKVA=15.0 %r=0.832101 XHL=1.08 XLT=1.08 XHT=0.72

New Transformer.tr(r:p2rdt12661-p2rdt12661lv) phases=1 windings=3 %loadloss=1.248151 %Noloadloss=0.68 normhkva=11.0 wdg=1 conn=wye bus=p2rdt12661.3 Kv=14.434 kva=10.0 EmergHKVA=15.0 %r=0.41605 wdg=2 conn=wye bus=p2rdt12661lv.1.0 Kv=0.12 kva=10.0 EmergHKVA=15.0 %r=0.832101 wdg=3 conn=wye bus=p2rdt12661lv.0.2 Kv=0.12 kva=10.0 EmergHKVA=15.0 %r=0.832101 XHL=1.08 XLT=1.08 XHT=0.72

New Transformer.tr(r:p2rdt12662-p2rdt12662lv) phases=1 windings=3 %loadloss=1.248151 %Noloadloss=0.68 normhkva=11.0 wdg=1 conn=wye bus=p2rdt12662.2 Kv=14.434 kva=10.0 EmergHKVA=15.0 %r=0.41605 wdg=2 conn=wye bus=p2rdt12662lv.1.0 Kv=0.12 kva=10.0 EmergHKVA=15.0 %r=0.832101 wdg=3 conn=wye bus=p2rdt12662lv.0.2 Kv=0.12 kva=10.0 EmergHKVA=15.0 %r=0.832101 XHL=1.08 XLT=1.08 XHT=0.72

New Transformer.tr(r:p2rdt12663-p2rdt12663lv) phases=1 windings=3 %loadloss=1.248151 %Noloadloss=0.68 normhkva=11.0 wdg=1 conn=wye bus=p2rdt12663.2 Kv=14.434 kva=10.0 EmergHKVA=15.0 %r=0.41605 wdg=2 conn=wye bus=p2rdt12663lv.1.0 Kv=0.12 kva=10.0 EmergHKVA=15.0 %r=0.832101 wdg=3 conn=wye bus=p2rdt12663lv.0.2 Kv=0.12 kva=10.0 EmergHKVA=15.0 %r=0.832101 XHL=1.08 XLT=1.08 XHT=0.72

New Transformer.tr(r:p2rdt12664-p2rdt12664lv) phases=1 windings=3 %loadloss=1.248151 %Noloadloss=0.68 normhkva=11.0 wdg=1 conn=wye bus=p2rdt12664.3 Kv=14.434 kva=10.0 EmergHKVA=15.0 %r=0.41605 wdg=2 conn=wye bus=p2rdt12664lv.1.0 Kv=0.12 kva=10.0 EmergHKVA=15.0 %r=0.832101 wdg=3 conn=wye bus=p2rdt12664lv.0.2 Kv=0.12 kva=10.0 EmergHKVA=15.0 %r=0.832101 XHL=1.08 XLT=1.08 XHT=0.72

New Transformer.tr(r:p2rdt12665-p2rdt12665lv) phases=1 windings=3 %loadloss=1.248151 %Noloadloss=0.68 normhkva=11.0 wdg=1 conn=wye bus=p2rdt12665.3 Kv=14.434 kva=10.0 EmergHKVA=15.0 %r=0.41605 wdg=2 conn=wye bus=p2rdt12665lv.1.0 Kv=0.12 kva=10.0 EmergHKVA=15.0 %r=0.832101 wdg=3 conn=wye bus=p2rdt12665lv.0.2 Kv=0.12 kva=10.0 EmergHKVA=15.0 %r=0.832101 XHL=1.08 XLT=1.08 XHT=0.72

New Transformer.tr(r:p2rdt12677-p2rdt12677lv) phases=1 windings=3 %loadloss=1.248151 %Noloadloss=0.68 normhkva=11.0 wdg=1 conn=wye bus=p2rdt12677.3 Kv=14.434 kva=10.0 EmergHKVA=15.0 %r=0.41605 wdg=2 conn=wye bus=p2rdt12677lv.1.0 Kv=0.12 kva=10.0 EmergHKVA=15.0 %r=0.832101 wdg=3 conn=wye bus=p2rdt12677lv.0.2 Kv=0.12 kva=10.0 EmergHKVA=15.0 %r=0.832101 XHL=1.08 XLT=1.08 XHT=0.72

New Transformer.tr(r:p2rdt12703-p2rdt12703lv) phases=1 windings=3 %loadloss=0.798816 %Noloadloss=0.37 normhkva=55.0 wdg=1 conn=wye bus=p2rdt12703.1 Kv=14.434 kva=50.0 EmergHKVA=75.0 %r=0.266272 wdg=2 conn=wye bus=p2rdt12703lv.1.0 Kv=0.12 kva=50.0 EmergHKVA=75.0 %r=0.532544 wdg=3 conn=wye bus=p2rdt12703lv.0.2 Kv=0.12 kva=50.0 EmergHKVA=75.0 %r=0.532544 XHL=2.4 XLT=2.4 XHT=1.6

New Transformer.tr(r:p2rdt12704-p2rdt12704lv) phases=1 windings=3 %loadloss=1.248151 %Noloadloss=0.68 normhkva=11.0 wdg=1 conn=wye bus=p2rdt12704.1 Kv=14.434 kva=10.0 EmergHKVA=15.0 %r=0.41605 wdg=2 conn=wye bus=p2rdt12704lv.1.0 Kv=0.12 kva=10.0 EmergHKVA=15.0 %r=0.832101 wdg=3 conn=wye bus=p2rdt12704lv.0.2 Kv=0.12 kva=10.0 EmergHKVA=15.0 %r=0.832101 XHL=1.08 XLT=1.08 XHT=0.72

New Transformer.tr(r:p2rdt12705-p2rdt12705lv) phases=1 windings=3 %loadloss=1.248151 %Noloadloss=0.68 normhkva=11.0 wdg=1 conn=wye bus=p2rdt12705.1 Kv=14.434 kva=10.0 EmergHKVA=15.0 %r=0.41605 wdg=2 conn=wye bus=p2rdt12705lv.1.0 Kv=0.12 kva=10.0 EmergHKVA=15.0 %r=0.832101 wdg=3 conn=wye bus=p2rdt12705lv.0.2 Kv=0.12 kva=10.0 EmergHKVA=15.0 %r=0.832101 XHL=1.08 XLT=1.08 XHT=0.72

New Transformer.tr(r:p2rdt12706-p2rdt12706lv) phases=1 windings=3 %loadloss=1.248151 %Noloadloss=0.68 normhkva=11.0 wdg=1 conn=wye bus=p2rdt12706.1 Kv=14.434 kva=10.0 EmergHKVA=15.0 %r=0.41605 wdg=2 conn=wye bus=p2rdt12706lv.1.0 Kv=0.12 kva=10.0 EmergHKVA=15.0 %r=0.832101 wdg=3 conn=wye bus=p2rdt12706lv.0.2 Kv=0.12 kva=10.0 EmergHKVA=15.0 %r=0.832101 XHL=1.08 XLT=1.08 XHT=0.72

New Transformer.tr(r:p2rdt12707-p2rdt12707lv) phases=1 windings=3 %loadloss=0.798816 %Noloadloss=0.472 normhkva=27.5 wdg=1 conn=wye bus=p2rdt12707.3 Kv=14.434 kva=50.0 EmergHKVA=37.5 %r=0.266272 wdg=2 conn=wye bus=p2rdt12707lv.1.0 Kv=0.12 kva=50.0 EmergHKVA=37.5 %r=0.532544 wdg=3 conn=wye bus=p2rdt12707lv.0.2 Kv=0.12 kva=50.0 EmergHKVA=37.5 %r=0.532544 XHL=2.4 XLT=2.4 XHT=1.6

New Transformer.tr(r:p2rdt12709-p2rdt12709lv) phases=1 windings=3 %loadloss=1.248151 %Noloadloss=0.68 normhkva=11.0 wdg=1 conn=wye bus=p2rdt12709.1 Kv=14.434 kva=10.0 EmergHKVA=15.0 %r=0.41605 wdg=2 conn=wye bus=p2rdt12709lv.1.0 Kv=0.12 kva=10.0 EmergHKVA=15.0 %r=0.832101 wdg=3 conn=wye bus=p2rdt12709lv.0.2 Kv=0.12 kva=10.0 EmergHKVA=15.0 %r=0.832101 XHL=1.08 XLT=1.08 XHT=0.72

New Transformer.tr(r:p2rdt12711-p2rdt12711lv) phases=1 windings=3 %loadloss=1.248151 %Noloadloss=0.68 normhkva=11.0 wdg=1 conn=wye bus=p2rdt12711.2 Kv=14.434 kva=10.0 EmergHKVA=15.0 %r=0.41605 wdg=2 conn=wye bus=p2rdt12711lv.1.0 Kv=0.12 kva=10.0 EmergHKVA=15.0 %r=0.832101 wdg=3 conn=wye bus=p2rdt12711lv.0.2 Kv=0.12 kva=10.0 EmergHKVA=15.0 %r=0.832101 XHL=1.08 XLT=1.08 XHT=0.72

New Transformer.tr(r:p2rdt12713-p2rdt12713lv) phases=1 windings=3 %loadloss=0.798816 %Noloadloss=0.472 normhkva=27.5 wdg=1 conn=wye bus=p2rdt12713.2 Kv=14.434 kva=25.0 EmergHKVA=37.5 %r=0.266272 wdg=2 conn=wye bus=p2rdt12713lv.1.0 Kv=0.12 kva=25.0 EmergHKVA=37.5 %r=0.532544 wdg=3 conn=wye bus=p2rdt12713lv.0.2 Kv=0.12 kva=25.0 EmergHKVA=37.5 %r=0.532544 XHL=2.4 XLT=2.4 XHT=1.6

New Transformer.tr(r:p2rdt12714-p2rdt12714lv) phases=1 windings=3 %loadloss=0.798816 %Noloadloss=0.472 normhkva=27.5 wdg=1 conn=wye bus=p2rdt12714.3 Kv=14.434 kva=25.0 EmergHKVA=37.5 %r=0.266272 wdg=2 conn=wye bus=p2rdt12714lv.1.0 Kv=0.12 kva=25.0 EmergHKVA=37.5 %r=0.532544 wdg=3 conn=wye bus=p2rdt12714lv.0.2 Kv=0.12 kva=25.0 EmergHKVA=37.5 %r=0.532544 XHL=2.4 XLT=2.4 XHT=1.6

New Transformer.tr(r:p2rdt12715-p2rdt12715lv) phases=1 windings=3 %loadloss=1.248151 %Noloadloss=0.68 normhkva=11.0 wdg=1 conn=wye bus=p2rdt12715.1 Kv=14.434 kva=10.0 EmergHKVA=15.0 %r=0.41605 wdg=2 conn=wye bus=p2rdt12715lv.1.0 Kv=0.12 kva=10.0 EmergHKVA=15.0 %r=0.832101 wdg=3 conn=wye bus=p2rdt12715lv.0.2 Kv=0.12 kva=10.0 EmergHKVA=15.0 %r=0.832101 XHL=1.08 XLT=1.08 XHT=0.72

New Transformer.tr(r:p2rdt12716-p2rdt12716lv) phases=1 windings=3 %loadloss=1.248151 %Noloadloss=0.68 normhkva=11.0 wdg=1 conn=wye bus=p2rdt12716.3 Kv=14.434 kva=10.0 EmergHKVA=15.0 %r=0.41605 wdg=2 conn=wye bus=p2rdt12716lv.1.0 Kv=0.12 kva=10.0 EmergHKVA=15.0 %r=0.832101 wdg=3 conn=wye bus=p2rdt12716lv.0.2 Kv=0.12 kva=10.0 EmergHKVA=15.0 %r=0.832101 XHL=1.08 XLT=1.08 XHT=0.72

New Transformer.tr(r:p2rdt12717-p2rdt12717lv) phases=1 windings=3 %loadloss=1.248151 %Noloadloss=0.68 normhkva=11.0 wdg=1 conn=wye bus=p2rdt12717.1 Kv=14.434 kva=10.0 EmergHKVA=15.0 %r=0.41605 wdg=2 conn=wye bus=p2rdt12717lv.1.0 Kv=0.12 kva=10.0 EmergHKVA=15.0 %r=0.832101 wdg=3 conn=wye bus=p2rdt12717lv.0.2 Kv=0.12 kva=10.0 EmergHKVA=15.0 %r=0.832101 XHL=1.08 XLT=1.08 XHT=0.72

New Transformer.tr(r:p2rdt12718-p2rdt12718lv) phases=1 windings=3 %loadloss=1.248151 %Noloadloss=0.68 normhkva=11.0 wdg=1 conn=wye bus=p2rdt12718.1 Kv=14.434 kva=10.0 EmergHKVA=15.0 %r=0.41605 wdg=2 conn=wye bus=p2rdt12718lv.1.0 Kv=0.12 kva=10.0 EmergHKVA=15.0 %r=0.832101 wdg=3 conn=wye bus=p2rdt12718lv.0.2 Kv=0.12 kva=10.0 EmergHKVA=15.0 %r=0.832101 XHL=1.08 XLT=1.08 XHT=0.72

New Transformer.tr(r:p2rdt12728-p2rdt12728lv) phases=1 windings=3 %loadloss=1.248151 %Noloadloss=0.68 normhkva=11.0 wdg=1 conn=wye bus=p2rdt12728.2 Kv=14.434 kva=10.0 EmergHKVA=15.0 %r=0.41605 wdg=2 conn=wye bus=p2rdt12728lv.1.0 Kv=0.12 kva=10.0 EmergHKVA=15.0 %r=0.832101 wdg=3 conn=wye bus=p2rdt12728lv.0.2 Kv=0.12 kva=10.0 EmergHKVA=15.0 %r=0.832101 XHL=1.08 XLT=1.08 XHT=0.72

New Transformer.tr(r:p2rdt12729-p2rdt12729lv) phases=1 windings=3 %loadloss=0.798816 %Noloadloss=0.472 normhkva=27.5 wdg=1 conn=wye bus=p2rdt12729.3 Kv=14.434 kva=25.0 EmergHKVA=37.5 %r=0.266272 wdg=2 conn=wye bus=p2rdt12729lv.1.0 Kv=0.12 kva=25.0 EmergHKVA=37.5 %r=0.532544 wdg=3 conn=wye bus=p2rdt12729lv.0.2 Kv=0.12 kva=25.0 EmergHKVA=37.5 %r=0.532544 XHL=2.4 XLT=2.4 XHT=1.6

New Transformer.tr(r:p2rdt12730-p2rdt12730lv) phases=1 windings=3 %loadloss=1.248151 %Noloadloss=0.68 normhkva=11.0 wdg=1 conn=wye bus=p2rdt12730.2 Kv=14.434 kva=10.0 EmergHKVA=15.0 %r=0.41605 wdg=2 conn=wye bus=p2rdt12730lv.1.0 Kv=0.12 kva=10.0 EmergHKVA=15.0 %r=0.832101 wdg=3 conn=wye bus=p2rdt12730lv.0.2 Kv=0.12 kva=10.0 EmergHKVA=15.0 %r=0.832101 XHL=1.08 XLT=1.08 XHT=0.72

New Transformer.tr(r:p2rdt12731-p2rdt12731lv) phases=1 windings=3 %loadloss=1.248151 %Noloadloss=0.68 normhkva=11.0 wdg=1 conn=wye bus=p2rdt12731.1 Kv=14.434 kva=10.0 EmergHKVA=15.0 %r=0.41605 wdg=2 conn=wye bus=p2rdt12731lv.1.0 Kv=0.12 kva=10.0 EmergHKVA=15.0 %r=0.832101 wdg=3 conn=wye bus=p2rdt12731lv.0.2 Kv=0.12 kva=10.0 EmergHKVA=15.0 %r=0.832101 XHL=1.08 XLT=1.08 XHT=0.72

New Transformer.tr(r:p2rdt12732-p2rdt12732lv) phases=1 windings=3 %loadloss=1.248151 %Noloadloss=0.68 normhkva=11.0 wdg=1 conn=wye bus=p2rdt12732.1 Kv=14.434 kva=10.0 EmergHKVA=15.0 %r=0.41605 wdg=2 conn=wye bus=p2rdt12732lv.1.0 Kv=0.12 kva=10.0 EmergHKVA=15.0 %r=0.832101 wdg=3 conn=wye bus=p2rdt12732lv.0.2 Kv=0.12 kva=10.0 EmergHKVA=15.0 %r=0.832101 XHL=1.08 XLT=1.08 XHT=0.72

New Transformer.tr(r:p2rdt12733-p2rdt12733lv) phases=1 windings=3 %loadloss=0.798816 %Noloadloss=0.472 normhkva=27.5 wdg=1 conn=wye bus=p2rdt12733.1 Kv=14.434 kva=25.0 EmergHKVA=37.5 %r=0.266272 wdg=2 conn=wye bus=p2rdt12733lv.1.0 Kv=0.12 kva=25.0 EmergHKVA=37.5 %r=0.532544 wdg=3 conn=wye bus=p2rdt12733lv.0.2 Kv=0.12 kva=25.0 EmergHKVA=37.5 %r=0.532544 XHL=2.4 XLT=2.4 XHT=1.6

New Transformer.tr(r:p2rdt12734-p2rdt12734lv) phases=1 windings=3 %loadloss=0.798816 %Noloadloss=0.472 normhkva=27.5 wdg=1 conn=wye bus=p2rdt12734.1 Kv=14.434 kva=25.0 EmergHKVA=37.5 %r=0.266272 wdg=2 conn=wye bus=p2rdt12734lv.1.0 Kv=0.12 kva=25.0 EmergHKVA=37.5 %r=0.532544 wdg=3 conn=wye bus=p2rdt12734lv.0.2 Kv=0.12 kva=25.0 EmergHKVA=37.5 %r=0.532544 XHL=2.4 XLT=2.4 XHT=1.6

New Transformer.tr(r:p2rdt12751-p2rdt12751lv) phases=1 windings=3 %loadloss=1.248151 %Noloadloss=0.68 normhkva=11.0 wdg=1 conn=wye bus=p2rdt12751.2 Kv=14.434 kva=10.0 EmergHKVA=15.0 %r=0.41605 wdg=2 conn=wye bus=p2rdt12751lv.1.0 Kv=0.12 kva=10.0 EmergHKVA=15.0 %r=0.832101 wdg=3 conn=wye bus=p2rdt12751lv.0.2 Kv=0.12 kva=10.0 EmergHKVA=15.0 %r=0.832101 XHL=1.08 XLT=1.08 XHT=0.72

New Transformer.tr(r:p2rdt12752-p2rdt12752lv) phases=1 windings=3 %loadloss=0.798816 %Noloadloss=0.472 normhkva=27.5 wdg=1 conn=wye bus=p2rdt12752.3 Kv=14.434 kva=25.0 EmergHKVA=37.5 %r=0.266272 wdg=2 conn=wye bus=p2rdt12752lv.1.0 Kv=0.12 kva=25.0 EmergHKVA=37.5 %r=0.532544 wdg=3 conn=wye bus=p2rdt12752lv.0.2 Kv=0.12 kva=25.0 EmergHKVA=37.5 %r=0.532544 XHL=2.4 XLT=2.4 XHT=1.6

New Transformer.tr(r:p2rdt12753-p2rdt12753lv) phases=1 windings=3 %loadloss=1.248151 %Noloadloss=0.68 normhkva=11.0 wdg=1 conn=wye bus=p2rdt12753.1 Kv=14.434 kva=10.0 EmergHKVA=15.0 %r=0.41605 wdg=2 conn=wye bus=p2rdt12753lv.1.0 Kv=0.12 kva=10.0 EmergHKVA=15.0 %r=0.832101 wdg=3 conn=wye bus=p2rdt12753lv.0.2 Kv=0.12 kva=10.0 EmergHKVA=15.0 %r=0.832101 XHL=1.08 XLT=1.08 XHT=0.72

New Transformer.tr(r:p2rdt12754-p2rdt12754lv) phases=1 windings=3 %loadloss=1.248151 %Noloadloss=0.68 normhkva=11.0 wdg=1 conn=wye bus=p2rdt12754.2 Kv=14.434 kva=10.0 EmergHKVA=15.0 %r=0.41605 wdg=2 conn=wye bus=p2rdt12754lv.1.0 Kv=0.12 kva=10.0 EmergHKVA=15.0 %r=0.832101 wdg=3 conn=wye bus=p2rdt12754lv.0.2 Kv=0.12 kva=10.0 EmergHKVA=15.0 %r=0.832101 XHL=1.08 XLT=1.08 XHT=0.72

New Transformer.tr(r:p2rdt12755-p2rdt12755lv) phases=1 windings=3 %loadloss=1.248151 %Noloadloss=0.68 normhkva=11.0 wdg=1 conn=wye bus=p2rdt12755.1 Kv=14.434 kva=10.0 EmergHKVA=15.0 %r=0.41605 wdg=2 conn=wye bus=p2rdt12755lv.1.0 Kv=0.12 kva=10.0 EmergHKVA=15.0 %r=0.832101 wdg=3 conn=wye bus=p2rdt12755lv.0.2 Kv=0.12 kva=10.0 EmergHKVA=15.0 %r=0.832101 XHL=1.08 XLT=1.08 XHT=0.72

New Transformer.tr(r:p2rdt12756-p2rdt12756lv) phases=1 windings=3 %loadloss=1.248151 %Noloadloss=0.68 normhkva=11.0 wdg=1 conn=wye bus=p2rdt12756.2 Kv=14.434 kva=10.0 EmergHKVA=15.0 %r=0.41605 wdg=2 conn=wye bus=p2rdt12756lv.1.0 Kv=0.12 kva=10.0 EmergHKVA=15.0 %r=0.832101 wdg=3 conn=wye bus=p2rdt12756lv.0.2 Kv=0.12 kva=10.0 EmergHKVA=15.0 %r=0.832101 XHL=1.08 XLT=1.08 XHT=0.72

New Transformer.tr(r:p2rdt12757-p2rdt12757lv) phases=1 windings=3 %loadloss=0.49926 %Noloadloss=0.38 normhkva=82.5 wdg=1 conn=wye bus=p2rdt12757.2 Kv=14.434 kva=75.0 EmergHKVA=112.5 %r=0.16642 wdg=2 conn=wye bus=p2rdt12757lv.1.0 Kv=0.12 kva=75.0 EmergHKVA=112.5 %r=0.33284 wdg=3 conn=wye bus=p2rdt12757lv.0.2 Kv=0.12 kva=75.0 EmergHKVA=112.5 %r=0.33284 XHL=2.4 XLT=2.4 XHT=1.6

New Transformer.tr(r:p2rdt12758-p2rdt12758lv) phases=1 windings=3 %loadloss=0.798816 %Noloadloss=0.472 normhkva=27.5 wdg=1 conn=wye bus=p2rdt12758.1 Kv=14.434 kva=25.0 EmergHKVA=37.5 %r=0.266272 wdg=2 conn=wye bus=p2rdt12758lv.1.0 Kv=0.12 kva=25.0 EmergHKVA=37.5 %r=0.532544 wdg=3 conn=wye bus=p2rdt12758lv.0.2 Kv=0.12 kva=25.0 EmergHKVA=37.5 %r=0.532544 XHL=2.4 XLT=2.4 XHT=1.6

New Transformer.tr(r:p2rdt12759-p2rdt12759lv) phases=1 windings=3 %loadloss=0.798816 %Noloadloss=0.37 normhkva=55.0 wdg=1 conn=wye bus=p2rdt12759.1 Kv=14.434 kva=50.0 EmergHKVA=75.0 %r=0.266272 wdg=2 conn=wye bus=p2rdt12759lv.1.0 Kv=0.12 kva=50.0 EmergHKVA=75.0 %r=0.532544 wdg=3 conn=wye bus=p2rdt12759lv.0.2 Kv=0.12 kva=50.0 EmergHKVA=75.0 %r=0.532544 XHL=2.4 XLT=2.4 XHT=1.6

New Transformer.tr(r:p2rdt12760-p2rdt12760lv) phases=1 windings=3 %loadloss=0.798816 %Noloadloss=0.37 normhkva=55.0 wdg=1 conn=wye bus=p2rdt12760.3 Kv=14.434 kva=50.0 EmergHKVA=75.0 %r=0.266272 wdg=2 conn=wye bus=p2rdt12760lv.1.0 Kv=0.12 kva=50.0 EmergHKVA=75.0 %r=0.532544 wdg=3 conn=wye bus=p2rdt12760lv.0.2 Kv=0.12 kva=50.0 EmergHKVA=75.0 %r=0.532544 XHL=2.4 XLT=2.4 XHT=1.6

New Transformer.tr(r:p2rdt12761-p2rdt12761lv) phases=1 windings=3 %loadloss=0.798816 %Noloadloss=0.472 normhkva=27.5 wdg=1 conn=wye bus=p2rdt12761.3 Kv=14.434 kva=25.0 EmergHKVA=37.5 %r=0.266272 wdg=2 conn=wye bus=p2rdt12761lv.1.0 Kv=0.12 kva=25.0 EmergHKVA=37.5 %r=0.532544 wdg=3 conn=wye bus=p2rdt12761lv.0.2 Kv=0.12 kva=25.0 EmergHKVA=37.5 %r=0.532544 XHL=2.4 XLT=2.4 XHT=1.6

New Transformer.tr(r:p2rdt12789-p2rdt12789lv) phases=1 windings=3 %loadloss=0.798816 %Noloadloss=0.472 normhkva=27.5 wdg=1 conn=wye bus=p2rdt12789.2 Kv=14.434 kva=25.0 EmergHKVA=37.5 %r=0.266272 wdg=2 conn=wye bus=p2rdt12789lv.1.0 Kv=0.12 kva=25.0 EmergHKVA=37.5 %r=0.532544 wdg=3 conn=wye bus=p2rdt12789lv.0.2 Kv=0.12 kva=25.0 EmergHKVA=37.5 %r=0.532544 XHL=2.4 XLT=2.4 XHT=1.6

New Transformer.tr(r:p2rdt12790-p2rdt12790lv) phases=1 windings=3 %loadloss=1.248151 %Noloadloss=0.68 normhkva=11.0 wdg=1 conn=wye bus=p2rdt12790.2 Kv=14.434 kva=10.0 EmergHKVA=15.0 %r=0.41605 wdg=2 conn=wye bus=p2rdt12790lv.1.0 Kv=0.12 kva=10.0 EmergHKVA=15.0 %r=0.832101 wdg=3 conn=wye bus=p2rdt12790lv.0.2 Kv=0.12 kva=10.0 EmergHKVA=15.0 %r=0.832101 XHL=1.08 XLT=1.08 XHT=0.72

New Transformer.tr(r:p2rdt12801-p2rdt12801lv) phases=1 windings=3 %loadloss=0.798816 %Noloadloss=0.472 normhkva=27.5 wdg=1 conn=wye bus=p2rdt12801.1 Kv=14.434 kva=25.0 EmergHKVA=37.5 %r=0.266272 wdg=2 conn=wye bus=p2rdt12801lv.1.0 Kv=0.12 kva=25.0 EmergHKVA=37.5 %r=0.532544 wdg=3 conn=wye bus=p2rdt12801lv.0.2 Kv=0.12 kva=25.0 EmergHKVA=37.5 %r=0.532544 XHL=2.4 XLT=2.4 XHT=1.6

New Transformer.tr(r:p2rdt12802-p2rdt12802lv) phases=1 windings=3 %loadloss=0.798816 %Noloadloss=0.472 normhkva=27.5 wdg=1 conn=wye bus=p2rdt12802.1 Kv=14.434 kva=25.0 EmergHKVA=37.5 %r=0.266272 wdg=2 conn=wye bus=p2rdt12802lv.1.0 Kv=0.12 kva=25.0 EmergHKVA=37.5 %r=0.532544 wdg=3 conn=wye bus=p2rdt12802lv.0.2 Kv=0.12 kva=25.0 EmergHKVA=37.5 %r=0.532544 XHL=2.4 XLT=2.4 XHT=1.6

New Transformer.tr(r:p2rdt12803-p2rdt12803lv) phases=1 windings=3 %loadloss=1.248151 %Noloadloss=0.68 normhkva=11.0 wdg=1 conn=wye bus=p2rdt12803.1 Kv=14.434 kva=10.0 EmergHKVA=15.0 %r=0.41605 wdg=2 conn=wye bus=p2rdt12803lv.1.0 Kv=0.12 kva=10.0 EmergHKVA=15.0 %r=0.832101 wdg=3 conn=wye bus=p2rdt12803lv.0.2 Kv=0.12 kva=10.0 EmergHKVA=15.0 %r=0.832101 XHL=1.08 XLT=1.08 XHT=0.72

New Transformer.tr(r:p2rdt12804-p2rdt12804lv) phases=1 windings=3 %loadloss=0.798816 %Noloadloss=0.37 normhkva=55.0 wdg=1 conn=wye bus=p2rdt12804.1 Kv=14.434 kva=50.0 EmergHKVA=75.0 %r=0.266272 wdg=2 conn=wye bus=p2rdt12804lv.1.0 Kv=0.12 kva=50.0 EmergHKVA=75.0 %r=0.532544 wdg=3 conn=wye bus=p2rdt12804lv.0.2 Kv=0.12 kva=50.0 EmergHKVA=75.0 %r=0.532544 XHL=2.4 XLT=2.4 XHT=1.6

New Transformer.tr(r:p2rdt12805-p2rdt12805lv) phases=1 windings=3 %loadloss=1.248151 %Noloadloss=0.68 normhkva=11.0 wdg=1 conn=wye bus=p2rdt12805.1 Kv=14.434 kva=10.0 EmergHKVA=15.0 %r=0.41605 wdg=2 conn=wye bus=p2rdt12805lv.1.0 Kv=0.12 kva=10.0 EmergHKVA=15.0 %r=0.832101 wdg=3 conn=wye bus=p2rdt12805lv.0.2 Kv=0.12 kva=10.0 EmergHKVA=15.0 %r=0.832101 XHL=1.08 XLT=1.08 XHT=0.72

New Transformer.tr(r:p2rdt12806-p2rdt12806lv) phases=1 windings=3 %loadloss=1.248151 %Noloadloss=0.68 normhkva=11.0 wdg=1 conn=wye bus=p2rdt12806.1 Kv=14.434 kva=10.0 EmergHKVA=15.0 %r=0.41605 wdg=2 conn=wye bus=p2rdt12806lv.1.0 Kv=0.12 kva=10.0 EmergHKVA=15.0 %r=0.832101 wdg=3 conn=wye bus=p2rdt12806lv.0.2 Kv=0.12 kva=10.0 EmergHKVA=15.0 %r=0.832101 XHL=1.08 XLT=1.08 XHT=0.72

New Transformer.tr(r:p2rdt12807-p2rdt12807lv) phases=1 windings=3 %loadloss=0.798816 %Noloadloss=0.472 normhkva=27.5 wdg=1 conn=wye bus=p2rdt12807.1 Kv=14.434 kva=25.0 EmergHKVA=37.5 %r=0.266272 wdg=2 conn=wye bus=p2rdt12807lv.1.0 Kv=0.12 kva=25.0 EmergHKVA=37.5 %r=0.532544 wdg=3 conn=wye bus=p2rdt12807lv.0.2 Kv=0.12 kva=25.0 EmergHKVA=37.5 %r=0.532544 XHL=2.4 XLT=2.4 XHT=1.6

New Transformer.tr(r:p2rdt12832-p2rdt12832lv) phases=1 windings=3 %loadloss=1.248151 %Noloadloss=0.68 normhkva=11.0 wdg=1 conn=wye bus=p2rdt12832.2 Kv=14.434 kva=10.0 EmergHKVA=15.0 %r=0.41605 wdg=2 conn=wye bus=p2rdt12832lv.1.0 Kv=0.12 kva=10.0 EmergHKVA=15.0 %r=0.832101 wdg=3 conn=wye bus=p2rdt12832lv.0.2 Kv=0.12 kva=10.0 EmergHKVA=15.0 %r=0.832101 XHL=1.08 XLT=1.08 XHT=0.72

New Transformer.tr(r:p2rdt12833-p2rdt12833lv) phases=1 windings=3 %loadloss=1.248151 %Noloadloss=0.68 normhkva=11.0 wdg=1 conn=wye bus=p2rdt12833.2 Kv=14.434 kva=10.0 EmergHKVA=15.0 %r=0.41605 wdg=2 conn=wye bus=p2rdt12833lv.1.0 Kv=0.12 kva=10.0 EmergHKVA=15.0 %r=0.832101 wdg=3 conn=wye bus=p2rdt12833lv.0.2 Kv=0.12 kva=10.0 EmergHKVA=15.0 %r=0.832101 XHL=1.08 XLT=1.08 XHT=0.72

New Transformer.tr(r:p2rdt12834-p2rdt12834lv) phases=1 windings=3 %loadloss=1.248151 %Noloadloss=0.68 normhkva=11.0 wdg=1 conn=wye bus=p2rdt12834.2 Kv=14.434 kva=10.0 EmergHKVA=15.0 %r=0.41605 wdg=2 conn=wye bus=p2rdt12834lv.1.0 Kv=0.12 kva=10.0 EmergHKVA=15.0 %r=0.832101 wdg=3 conn=wye bus=p2rdt12834lv.0.2 Kv=0.12 kva=10.0 EmergHKVA=15.0 %r=0.832101 XHL=1.08 XLT=1.08 XHT=0.72

New Transformer.tr(r:p2rdt12835-p2rdt12835lv) phases=1 windings=3 %loadloss=1.248151 %Noloadloss=0.68 normhkva=11.0 wdg=1 conn=wye bus=p2rdt12835.3 Kv=14.434 kva=10.0 EmergHKVA=15.0 %r=0.41605 wdg=2 conn=wye bus=p2rdt12835lv.1.0 Kv=0.12 kva=10.0 EmergHKVA=15.0 %r=0.832101 wdg=3 conn=wye bus=p2rdt12835lv.0.2 Kv=0.12 kva=10.0 EmergHKVA=15.0 %r=0.832101 XHL=1.08 XLT=1.08 XHT=0.72

New Transformer.tr(r:p2rdt12836-p2rdt12836lv) phases=1 windings=3 %loadloss=0.798816 %Noloadloss=0.472 normhkva=27.5 wdg=1 conn=wye bus=p2rdt12836.3 Kv=14.434 kva=25.0 EmergHKVA=37.5 %r=0.266272 wdg=2 conn=wye bus=p2rdt12836lv.1.0 Kv=0.12 kva=25.0 EmergHKVA=37.5 %r=0.532544 wdg=3 conn=wye bus=p2rdt12836lv.0.2 Kv=0.12 kva=25.0 EmergHKVA=37.5 %r=0.532544 XHL=2.4 XLT=2.4 XHT=1.6

New Transformer.tr(r:p2rdt12837-p2rdt12837lv) phases=1 windings=3 %loadloss=0.798816 %Noloadloss=0.472 normhkva=27.5 wdg=1 conn=wye bus=p2rdt12837.2 Kv=14.434 kva=25.0 EmergHKVA=37.5 %r=0.266272 wdg=2 conn=wye bus=p2rdt12837lv.1.0 Kv=0.12 kva=25.0 EmergHKVA=37.5 %r=0.532544 wdg=3 conn=wye bus=p2rdt12837lv.0.2 Kv=0.12 kva=25.0 EmergHKVA=37.5 %r=0.532544 XHL=2.4 XLT=2.4 XHT=1.6

New Transformer.tr(r:p2rdt12838-p2rdt12838lv) phases=1 windings=3 %loadloss=0.798816 %Noloadloss=0.472 normhkva=27.5 wdg=1 conn=wye bus=p2rdt12838.3 Kv=14.434 kva=25.0 EmergHKVA=37.5 %r=0.266272 wdg=2 conn=wye bus=p2rdt12838lv.1.0 Kv=0.12 kva=25.0 EmergHKVA=37.5 %r=0.532544 wdg=3 conn=wye bus=p2rdt12838lv.0.2 Kv=0.12 kva=25.0 EmergHKVA=37.5 %r=0.532544 XHL=2.4 XLT=2.4 XHT=1.6

New Transformer.tr(r:p2rdt12839-p2rdt12839lv) phases=1 windings=3 %loadloss=0.798816 %Noloadloss=0.37 normhkva=55.0 wdg=1 conn=wye bus=p2rdt12839.3 Kv=14.434 kva=50.0 EmergHKVA=75.0 %r=0.266272 wdg=2 conn=wye bus=p2rdt12839lv.1.0 Kv=0.12 kva=50.0 EmergHKVA=75.0 %r=0.532544 wdg=3 conn=wye bus=p2rdt12839lv.0.2 Kv=0.12 kva=50.0 EmergHKVA=75.0 %r=0.532544 XHL=2.4 XLT=2.4 XHT=1.6

New Transformer.tr(r:p2rdt12840-p2rdt12840lv) phases=1 windings=3 %loadloss=0.798816 %Noloadloss=0.37 normhkva=55.0 wdg=1 conn=wye bus=p2rdt12840.2 Kv=14.434 kva=50.0 EmergHKVA=75.0 %r=0.266272 wdg=2 conn=wye bus=p2rdt12840lv.1.0 Kv=0.12 kva=50.0 EmergHKVA=75.0 %r=0.532544 wdg=3 conn=wye bus=p2rdt12840lv.0.2 Kv=0.12 kva=50.0 EmergHKVA=75.0 %r=0.532544 XHL=2.4 XLT=2.4 XHT=1.6

New Transformer.tr(r:p2rdt12841-p2rdt12841lv) phases=1 windings=3 %loadloss=0.798816 %Noloadloss=0.37 normhkva=55.0 wdg=1 conn=wye bus=p2rdt12841.2 Kv=14.434 kva=50.0 EmergHKVA=75.0 %r=0.266272 wdg=2 conn=wye bus=p2rdt12841lv.1.0 Kv=0.12 kva=50.0 EmergHKVA=75.0 %r=0.532544 wdg=3 conn=wye bus=p2rdt12841lv.0.2 Kv=0.12 kva=50.0 EmergHKVA=75.0 %r=0.532544 XHL=2.4 XLT=2.4 XHT=1.6

New Transformer.tr(r:p2rdt12842-p2rdt12842lv) phases=1 windings=3 %loadloss=0.798816 %Noloadloss=0.472 normhkva=27.5 wdg=1 conn=wye bus=p2rdt12842.1 Kv=14.434 kva=25.0 EmergHKVA=37.5 %r=0.266272 wdg=2 conn=wye bus=p2rdt12842lv.1.0 Kv=0.12 kva=25.0 EmergHKVA=37.5 %r=0.532544 wdg=3 conn=wye bus=p2rdt12842lv.0.2 Kv=0.12 kva=25.0 EmergHKVA=37.5 %r=0.532544 XHL=2.4 XLT=2.4 XHT=1.6

New Transformer.tr(r:p2rdt12843-p2rdt12843lv) phases=1 windings=3 %loadloss=1.248151 %Noloadloss=0.68 normhkva=11.0 wdg=1 conn=wye bus=p2rdt12843.1 Kv=14.434 kva=10.0 EmergHKVA=15.0 %r=0.41605 wdg=2 conn=wye bus=p2rdt12843lv.1.0 Kv=0.12 kva=10.0 EmergHKVA=15.0 %r=0.832101 wdg=3 conn=wye bus=p2rdt12843lv.0.2 Kv=0.12 kva=10.0 EmergHKVA=15.0 %r=0.832101 XHL=1.08 XLT=1.08 XHT=0.72

New Transformer.tr(r:p2rdt12844-p2rdt12844lv) phases=1 windings=3 %loadloss=1.248151 %Noloadloss=0.68 normhkva=11.0 wdg=1 conn=wye bus=p2rdt12844.1 Kv=14.434 kva=10.0 EmergHKVA=15.0 %r=0.41605 wdg=2 conn=wye bus=p2rdt12844lv.1.0 Kv=0.12 kva=10.0 EmergHKVA=15.0 %r=0.832101 wdg=3 conn=wye bus=p2rdt12844lv.0.2 Kv=0.12 kva=10.0 EmergHKVA=15.0 %r=0.832101 XHL=1.08 XLT=1.08 XHT=0.72

New Transformer.tr(r:p2rdt12845-p2rdt12845lv) phases=1 windings=3 %loadloss=0.798816 %Noloadloss=0.472 normhkva=27.5 wdg=1 conn=wye bus=p2rdt12845.1 Kv=14.434 kva=25.0 EmergHKVA=37.5 %r=0.266272 wdg=2 conn=wye bus=p2rdt12845lv.1.0 Kv=0.12 kva=25.0 EmergHKVA=37.5 %r=0.532544 wdg=3 conn=wye bus=p2rdt12845lv.0.2 Kv=0.12 kva=25.0 EmergHKVA=37.5 %r=0.532544 XHL=2.4 XLT=2.4 XHT=1.6

New Transformer.tr(r:p2rdt12846-p2rdt12846lv) phases=1 windings=3 %loadloss=0.798816 %Noloadloss=0.472 normhkva=27.5 wdg=1 conn=wye bus=p2rdt12846.1 Kv=14.434 kva=25.0 EmergHKVA=37.5 %r=0.266272 wdg=2 conn=wye bus=p2rdt12846lv.1.0 Kv=0.12 kva=25.0 EmergHKVA=37.5 %r=0.532544 wdg=3 conn=wye bus=p2rdt12846lv.0.2 Kv=0.12 kva=25.0 EmergHKVA=37.5 %r=0.532544 XHL=2.4 XLT=2.4 XHT=1.6

New Transformer.tr(r:p2rdt12847-p2rdt12847lv) phases=1 windings=3 %loadloss=0.798816 %Noloadloss=0.472 normhkva=27.5 wdg=1 conn=wye bus=p2rdt12847.1 Kv=14.434 kva=25.0 EmergHKVA=37.5 %r=0.266272 wdg=2 conn=wye bus=p2rdt12847lv.1.0 Kv=0.12 kva=25.0 EmergHKVA=37.5 %r=0.532544 wdg=3 conn=wye bus=p2rdt12847lv.0.2 Kv=0.12 kva=25.0 EmergHKVA=37.5 %r=0.532544 XHL=2.4 XLT=2.4 XHT=1.6

New Transformer.tr(r:p2rdt12848-p2rdt12848lv) phases=1 windings=3 %loadloss=0.798816 %Noloadloss=0.472 normhkva=27.5 wdg=1 conn=wye bus=p2rdt12848.1 Kv=14.434 kva=25.0 EmergHKVA=37.5 %r=0.266272 wdg=2 conn=wye bus=p2rdt12848lv.1.0 Kv=0.12 kva=25.0 EmergHKVA=37.5 %r=0.532544 wdg=3 conn=wye bus=p2rdt12848lv.0.2 Kv=0.12 kva=25.0 EmergHKVA=37.5 %r=0.532544 XHL=2.4 XLT=2.4 XHT=1.6

New Transformer.tr(r:p2rdt12849-p2rdt12849lv) phases=1 windings=3 %loadloss=0.49926 %Noloadloss=0.38 normhkva=82.5 wdg=1 conn=wye bus=p2rdt12849.3 Kv=14.434 kva=75.0 EmergHKVA=112.5 %r=0.16642 wdg=2 conn=wye bus=p2rdt12849lv.1.0 Kv=0.12 kva=75.0 EmergHKVA=112.5 %r=0.33284 wdg=3 conn=wye bus=p2rdt12849lv.0.2 Kv=0.12 kva=75.0 EmergHKVA=112.5 %r=0.33284 XHL=2.4 XLT=2.4 XHT=1.6

New Transformer.tr(r:p2rdt12850-p2rdt12850lv) phases=1 windings=3 %loadloss=0.798816 %Noloadloss=0.37 normhkva=55.0 wdg=1 conn=wye bus=p2rdt12850.1 Kv=14.434 kva=50.0 EmergHKVA=75.0 %r=0.266272 wdg=2 conn=wye bus=p2rdt12850lv.1.0 Kv=0.12 kva=50.0 EmergHKVA=75.0 %r=0.532544 wdg=3 conn=wye bus=p2rdt12850lv.0.2 Kv=0.12 kva=50.0 EmergHKVA=75.0 %r=0.532544 XHL=2.4 XLT=2.4 XHT=1.6

New Transformer.tr(r:p2rdt12851-p2rdt12851lv) phases=3 windings=2 %loadloss=1.74408 %Noloadloss=0.6 normhkva=82.5 wdg=1 conn=delta Kv=25.0 kva=75.0 EmergHKVA=112.5 %R=0.87204 bus=p2rdt12851 wdg=2 conn=wye Kv=0.48 kva=75.0 EmergHKVA=112.5 %R=0.87204 bus=p2rdt12851lv XHL=3.2400000000000007

New Transformer.tr(r:p2rdt12852-p2rdt12852lv) phases=1 windings=3 %loadloss=0.798816 %Noloadloss=0.37 normhkva=55.0 wdg=1 conn=wye bus=p2rdt12852.2 Kv=14.434 kva=50.0 EmergHKVA=75.0 %r=0.266272 wdg=2 conn=wye bus=p2rdt12852lv.1.0 Kv=0.12 kva=50.0 EmergHKVA=75.0 %r=0.532544 wdg=3 conn=wye bus=p2rdt12852lv.0.2 Kv=0.12 kva=50.0 EmergHKVA=75.0 %r=0.532544 XHL=2.4 XLT=2.4 XHT=1.6

New Transformer.tr(r:p2rdt12853-p2rdt12853lv) phases=1 windings=3 %loadloss=0.798816 %Noloadloss=0.472 normhkva=27.5 wdg=1 conn=wye bus=p2rdt12853.2 Kv=14.434 kva=25.0 EmergHKVA=37.5 %r=0.266272 wdg=2 conn=wye bus=p2rdt12853lv.1.0 Kv=0.12 kva=25.0 EmergHKVA=37.5 %r=0.532544 wdg=3 conn=wye bus=p2rdt12853lv.0.2 Kv=0.12 kva=25.0 EmergHKVA=37.5 %r=0.532544 XHL=2.4 XLT=2.4 XHT=1.6

New Transformer.tr(r:p2rdt12854-p2rdt12854lv) phases=3 windings=2 %loadloss=1.61095 %Noloadloss=0.62 normhkva=110.0 wdg=1 conn=delta Kv=25.0 kva=100.0 EmergHKVA=150.0 %R=0.805475 bus=p2rdt12854 wdg=2 conn=wye Kv=0.48 kva=100.0 EmergHKVA=150.0 %R=0.805475 bus=p2rdt12854lv XHL=3.29

New Transformer.tr(r:p2rdt12855-p2rdt12855lv) phases=1 windings=3 %loadloss=0.798816 %Noloadloss=0.37 normhkva=55.0 wdg=1 conn=wye bus=p2rdt12855.1 Kv=14.434 kva=50.0 EmergHKVA=75.0 %r=0.266272 wdg=2 conn=wye bus=p2rdt12855lv.1.0 Kv=0.12 kva=50.0 EmergHKVA=75.0 %r=0.532544 wdg=3 conn=wye bus=p2rdt12855lv.0.2 Kv=0.12 kva=50.0 EmergHKVA=75.0 %r=0.532544 XHL=2.4 XLT=2.4 XHT=1.6

New Transformer.tr(r:p2rdt12856-p2rdt12856lv) phases=3 windings=2 %loadloss=1.74408 %Noloadloss=0.6 normhkva=82.5 wdg=1 conn=delta Kv=25.0 kva=75.0 EmergHKVA=112.5 %R=0.87204 bus=p2rdt12856 wdg=2 conn=wye Kv=0.48 kva=75.0 EmergHKVA=112.5 %R=0.87204 bus=p2rdt12856lv XHL=3.2400000000000007

New Transformer.tr(r:p2rdt12857-p2rdt12857lv) phases=1 windings=3 %loadloss=0.798816 %Noloadloss=0.472 normhkva=27.5 wdg=1 conn=wye bus=p2rdt12857.1 Kv=14.434 kva=25.0 EmergHKVA=37.5 %r=0.266272 wdg=2 conn=wye bus=p2rdt12857lv.1.0 Kv=0.12 kva=25.0 EmergHKVA=37.5 %r=0.532544 wdg=3 conn=wye bus=p2rdt12857lv.0.2 Kv=0.12 kva=25.0 EmergHKVA=37.5 %r=0.532544 XHL=2.4 XLT=2.4 XHT=1.6

New Transformer.tr(r:p2rdt12858-p2rdt12858lv) phases=1 windings=3 %loadloss=0.798816 %Noloadloss=0.472 normhkva=27.5 wdg=1 conn=wye bus=p2rdt12858.2 Kv=14.434 kva=25.0 EmergHKVA=37.5 %r=0.266272 wdg=2 conn=wye bus=p2rdt12858lv.1.0 Kv=0.12 kva=25.0 EmergHKVA=37.5 %r=0.532544 wdg=3 conn=wye bus=p2rdt12858lv.0.2 Kv=0.12 kva=25.0 EmergHKVA=37.5 %r=0.532544 XHL=2.4 XLT=2.4 XHT=1.6

New Transformer.tr(r:p2rdt12859-p2rdt12859lv) phases=3 windings=2 %loadloss=1.74408 %Noloadloss=0.6 normhkva=82.5 wdg=1 conn=delta Kv=25.0 kva=75.0 EmergHKVA=112.5 %R=0.87204 bus=p2rdt12859 wdg=2 conn=wye Kv=0.48 kva=75.0 EmergHKVA=112.5 %R=0.87204 bus=p2rdt12859lv XHL=3.2400000000000007

New Transformer.tr(r:p2rdt12860-p2rdt12860lv) phases=1 windings=3 %loadloss=0.798816 %Noloadloss=0.37 normhkva=55.0 wdg=1 conn=wye bus=p2rdt12860.1 Kv=14.434 kva=50.0 EmergHKVA=75.0 %r=0.266272 wdg=2 conn=wye bus=p2rdt12860lv.1.0 Kv=0.12 kva=50.0 EmergHKVA=75.0 %r=0.532544 wdg=3 conn=wye bus=p2rdt12860lv.0.2 Kv=0.12 kva=50.0 EmergHKVA=75.0 %r=0.532544 XHL=2.4 XLT=2.4 XHT=1.6

New Transformer.tr(r:p2rdt12861-p2rdt12861lv) phases=1 windings=3 %loadloss=0.798816 %Noloadloss=0.37 normhkva=55.0 wdg=1 conn=wye bus=p2rdt12861.2 Kv=14.434 kva=50.0 EmergHKVA=75.0 %r=0.266272 wdg=2 conn=wye bus=p2rdt12861lv.1.0 Kv=0.12 kva=50.0 EmergHKVA=75.0 %r=0.532544 wdg=3 conn=wye bus=p2rdt12861lv.0.2 Kv=0.12 kva=50.0 EmergHKVA=75.0 %r=0.532544 XHL=2.4 XLT=2.4 XHT=1.6

New Transformer.tr(r:p2rdt12862-p2rdt12862lv) phases=1 windings=3 %loadloss=0.49926 %Noloadloss=0.38 normhkva=82.5 wdg=1 conn=wye bus=p2rdt12862.2 Kv=14.434 kva=75.0 EmergHKVA=112.5 %r=0.16642 wdg=2 conn=wye bus=p2rdt12862lv.1.0 Kv=0.12 kva=75.0 EmergHKVA=112.5 %r=0.33284 wdg=3 conn=wye bus=p2rdt12862lv.0.2 Kv=0.12 kva=75.0 EmergHKVA=112.5 %r=0.33284 XHL=2.4 XLT=2.4 XHT=1.6

New Transformer.tr(r:p2rdt12863-p2rdt12863lv) phases=1 windings=3 %loadloss=0.798816 %Noloadloss=0.37 normhkva=55.0 wdg=1 conn=wye bus=p2rdt12863.1 Kv=14.434 kva=50.0 EmergHKVA=75.0 %r=0.266272 wdg=2 conn=wye bus=p2rdt12863lv.1.0 Kv=0.12 kva=50.0 EmergHKVA=75.0 %r=0.532544 wdg=3 conn=wye bus=p2rdt12863lv.0.2 Kv=0.12 kva=50.0 EmergHKVA=75.0 %r=0.532544 XHL=2.4 XLT=2.4 XHT=1.6

New Transformer.tr(r:p2rdt12864-p2rdt12864lv) phases=3 windings=2 %loadloss=1.61095 %Noloadloss=0.62 normhkva=110.0 wdg=1 conn=delta Kv=25.0 kva=100.0 EmergHKVA=150.0 %R=0.805475 bus=p2rdt12864 wdg=2 conn=wye Kv=0.48 kva=100.0 EmergHKVA=150.0 %R=0.805475 bus=p2rdt12864lv XHL=3.29

New Transformer.tr(r:p2rdt12865-p2rdt12865lv) phases=3 windings=2 %loadloss=1.74408 %Noloadloss=0.6 normhkva=82.5 wdg=1 conn=delta Kv=25.0 kva=75.0 EmergHKVA=112.5 %R=0.87204 bus=p2rdt12865 wdg=2 conn=wye Kv=0.48 kva=75.0 EmergHKVA=112.5 %R=0.87204 bus=p2rdt12865lv XHL=3.2400000000000007

New Transformer.tr(r:p2rdt12866-p2rdt12866lv) phases=3 windings=2 %loadloss=1.74408 %Noloadloss=0.6 normhkva=82.5 wdg=1 conn=delta Kv=25.0 kva=75.0 EmergHKVA=112.5 %R=0.87204 bus=p2rdt12866 wdg=2 conn=wye Kv=0.48 kva=75.0 EmergHKVA=112.5 %R=0.87204 bus=p2rdt12866lv XHL=3.2400000000000007

New Transformer.tr(r:p2rdt12867-p2rdt12867lv) phases=3 windings=2 %loadloss=1.74408 %Noloadloss=0.6 normhkva=82.5 wdg=1 conn=delta Kv=25.0 kva=75.0 EmergHKVA=112.5 %R=0.87204 bus=p2rdt12867 wdg=2 conn=wye Kv=0.48 kva=75.0 EmergHKVA=112.5 %R=0.87204 bus=p2rdt12867lv XHL=3.2400000000000007

New Transformer.tr(r:p2rdt12868-p2rdt12868lv) phases=1 windings=3 %loadloss=0.798816 %Noloadloss=0.37 normhkva=55.0 wdg=1 conn=wye bus=p2rdt12868.2 Kv=14.434 kva=50.0 EmergHKVA=75.0 %r=0.266272 wdg=2 conn=wye bus=p2rdt12868lv.1.0 Kv=0.12 kva=50.0 EmergHKVA=75.0 %r=0.532544 wdg=3 conn=wye bus=p2rdt12868lv.0.2 Kv=0.12 kva=50.0 EmergHKVA=75.0 %r=0.532544 XHL=2.4 XLT=2.4 XHT=1.6

New Transformer.tr(r:p2rdt12869-p2rdt12869lv) phases=1 windings=3 %loadloss=0.798816 %Noloadloss=0.472 normhkva=27.5 wdg=1 conn=wye bus=p2rdt12869.1 Kv=14.434 kva=25.0 EmergHKVA=37.5 %r=0.266272 wdg=2 conn=wye bus=p2rdt12869lv.1.0 Kv=0.12 kva=25.0 EmergHKVA=37.5 %r=0.532544 wdg=3 conn=wye bus=p2rdt12869lv.0.2 Kv=0.12 kva=25.0 EmergHKVA=37.5 %r=0.532544 XHL=2.4 XLT=2.4 XHT=1.6

New Transformer.tr(r:p2rdt12870-p2rdt12870lv) phases=1 windings=3 %loadloss=0.798816 %Noloadloss=0.472 normhkva=27.5 wdg=1 conn=wye bus=p2rdt12870.1 Kv=14.434 kva=25.0 EmergHKVA=37.5 %r=0.266272 wdg=2 conn=wye bus=p2rdt12870lv.1.0 Kv=0.12 kva=25.0 EmergHKVA=37.5 %r=0.532544 wdg=3 conn=wye bus=p2rdt12870lv.0.2 Kv=0.12 kva=25.0 EmergHKVA=37.5 %r=0.532544 XHL=2.4 XLT=2.4 XHT=1.6

New Transformer.tr(r:p2rdt12871-p2rdt12871lv) phases=1 windings=3 %loadloss=0.798816 %Noloadloss=0.37 normhkva=55.0 wdg=1 conn=wye bus=p2rdt12871.3 Kv=14.434 kva=50.0 EmergHKVA=75.0 %r=0.266272 wdg=2 conn=wye bus=p2rdt12871lv.1.0 Kv=0.12 kva=50.0 EmergHKVA=75.0 %r=0.532544 wdg=3 conn=wye bus=p2rdt12871lv.0.2 Kv=0.12 kva=50.0 EmergHKVA=75.0 %r=0.532544 XHL=2.4 XLT=2.4 XHT=1.6

New Transformer.tr(r:p2rdt12872-p2rdt12872lv) phases=3 windings=2 %loadloss=1.74408 %Noloadloss=0.6 normhkva=82.5 wdg=1 conn=delta Kv=25.0 kva=75.0 EmergHKVA=112.5 %R=0.87204 bus=p2rdt12872 wdg=2 conn=wye Kv=0.48 kva=75.0 EmergHKVA=112.5 %R=0.87204 bus=p2rdt12872lv XHL=3.2400000000000007

New Transformer.tr(r:p2rdt12873-p2rdt12873lv) phases=1 windings=3 %loadloss=1.248151 %Noloadloss=0.68 normhkva=11.0 wdg=1 conn=wye bus=p2rdt12873.2 Kv=14.434 kva=10.0 EmergHKVA=15.0 %r=0.41605 wdg=2 conn=wye bus=p2rdt12873lv.1.0 Kv=0.12 kva=10.0 EmergHKVA=15.0 %r=0.832101 wdg=3 conn=wye bus=p2rdt12873lv.0.2 Kv=0.12 kva=10.0 EmergHKVA=15.0 %r=0.832101 XHL=1.08 XLT=1.08 XHT=0.72

New Transformer.tr(r:p2rdt12874-p2rdt12874lv) phases=1 windings=3 %loadloss=0.798816 %Noloadloss=0.472 normhkva=27.5 wdg=1 conn=wye bus=p2rdt12874.3 Kv=14.434 kva=25.0 EmergHKVA=37.5 %r=0.266272 wdg=2 conn=wye bus=p2rdt12874lv.1.0 Kv=0.12 kva=25.0 EmergHKVA=37.5 %r=0.532544 wdg=3 conn=wye bus=p2rdt12874lv.0.2 Kv=0.12 kva=25.0 EmergHKVA=37.5 %r=0.532544 XHL=2.4 XLT=2.4 XHT=1.6

New Transformer.tr(r:p2rdt12875-p2rdt12875lv) phases=1 windings=3 %loadloss=1.248151 %Noloadloss=0.68 normhkva=11.0 wdg=1 conn=wye bus=p2rdt12875.3 Kv=14.434 kva=10.0 EmergHKVA=15.0 %r=0.41605 wdg=2 conn=wye bus=p2rdt12875lv.1.0 Kv=0.12 kva=10.0 EmergHKVA=15.0 %r=0.832101 wdg=3 conn=wye bus=p2rdt12875lv.0.2 Kv=0.12 kva=10.0 EmergHKVA=15.0 %r=0.832101 XHL=1.08 XLT=1.08 XHT=0.72

New Transformer.tr(r:p2rdt12876-p2rdt12876lv) phases=1 windings=3 %loadloss=1.248151 %Noloadloss=0.68 normhkva=11.0 wdg=1 conn=wye bus=p2rdt12876.1 Kv=14.434 kva=10.0 EmergHKVA=15.0 %r=0.41605 wdg=2 conn=wye bus=p2rdt12876lv.1.0 Kv=0.12 kva=10.0 EmergHKVA=15.0 %r=0.832101 wdg=3 conn=wye bus=p2rdt12876lv.0.2 Kv=0.12 kva=10.0 EmergHKVA=15.0 %r=0.832101 XHL=1.08 XLT=1.08 XHT=0.72

New Transformer.tr(r:p2rdt12877-p2rdt12877lv) phases=1 windings=3 %loadloss=1.248151 %Noloadloss=0.68 normhkva=11.0 wdg=1 conn=wye bus=p2rdt12877.3 Kv=14.434 kva=10.0 EmergHKVA=15.0 %r=0.41605 wdg=2 conn=wye bus=p2rdt12877lv.1.0 Kv=0.12 kva=10.0 EmergHKVA=15.0 %r=0.832101 wdg=3 conn=wye bus=p2rdt12877lv.0.2 Kv=0.12 kva=10.0 EmergHKVA=15.0 %r=0.832101 XHL=1.08 XLT=1.08 XHT=0.72

New Transformer.tr(r:p2rdt12878-p2rdt12878lv) phases=1 windings=3 %loadloss=0.798816 %Noloadloss=0.472 normhkva=27.5 wdg=1 conn=wye bus=p2rdt12878.3 Kv=14.434 kva=25.0 EmergHKVA=37.5 %r=0.266272 wdg=2 conn=wye bus=p2rdt12878lv.1.0 Kv=0.12 kva=25.0 EmergHKVA=37.5 %r=0.532544 wdg=3 conn=wye bus=p2rdt12878lv.0.2 Kv=0.12 kva=25.0 EmergHKVA=37.5 %r=0.532544 XHL=2.4 XLT=2.4 XHT=1.6

New Transformer.tr(r:p2rdt12879-p2rdt12879lv) phases=1 windings=3 %loadloss=0.798816 %Noloadloss=0.37 normhkva=55.0 wdg=1 conn=wye bus=p2rdt12879.1 Kv=14.434 kva=50.0 EmergHKVA=75.0 %r=0.266272 wdg=2 conn=wye bus=p2rdt12879lv.1.0 Kv=0.12 kva=50.0 EmergHKVA=75.0 %r=0.532544 wdg=3 conn=wye bus=p2rdt12879lv.0.2 Kv=0.12 kva=50.0 EmergHKVA=75.0 %r=0.532544 XHL=2.4 XLT=2.4 XHT=1.6

New Transformer.tr(r:p2rdt12880-p2rdt12880lv) phases=1 windings=3 %loadloss=0.798816 %Noloadloss=0.37 normhkva=55.0 wdg=1 conn=wye bus=p2rdt12880.3 Kv=14.434 kva=50.0 EmergHKVA=75.0 %r=0.266272 wdg=2 conn=wye bus=p2rdt12880lv.1.0 Kv=0.12 kva=50.0 EmergHKVA=75.0 %r=0.532544 wdg=3 conn=wye bus=p2rdt12880lv.0.2 Kv=0.12 kva=50.0 EmergHKVA=75.0 %r=0.532544 XHL=2.4 XLT=2.4 XHT=1.6

New Transformer.tr(r:p2rdt12881-p2rdt12881lv) phases=3 windings=2 %loadloss=1.74408 %Noloadloss=0.6 normhkva=82.5 wdg=1 conn=delta Kv=25.0 kva=75.0 EmergHKVA=112.5 %R=0.87204 bus=p2rdt12881 wdg=2 conn=wye Kv=0.48 kva=75.0 EmergHKVA=112.5 %R=0.87204 bus=p2rdt12881lv XHL=3.2400000000000007

New Transformer.tr(r:p2rdt12882-p2rdt12882lv) phases=3 windings=2 %loadloss=1.74408 %Noloadloss=0.6 normhkva=82.5 wdg=1 conn=delta Kv=25.0 kva=75.0 EmergHKVA=112.5 %R=0.87204 bus=p2rdt12882 wdg=2 conn=wye Kv=0.48 kva=75.0 EmergHKVA=112.5 %R=0.87204 bus=p2rdt12882lv XHL=3.2400000000000007

New Transformer.tr(r:p2rdt12883-p2rdt12883lv) phases=3 windings=2 %loadloss=1.61095 %Noloadloss=0.62 normhkva=110.0 wdg=1 conn=delta Kv=25.0 kva=100.0 EmergHKVA=150.0 %R=0.805475 bus=p2rdt12883 wdg=2 conn=wye Kv=0.48 kva=100.0 EmergHKVA=150.0 %R=0.805475 bus=p2rdt12883lv XHL=3.29

New Transformer.tr(r:p2rdt12884-p2rdt12884lv) phases=3 windings=2 %loadloss=1.74408 %Noloadloss=0.6 normhkva=82.5 wdg=1 conn=delta Kv=25.0 kva=75.0 EmergHKVA=112.5 %R=0.87204 bus=p2rdt12884 wdg=2 conn=wye Kv=0.48 kva=75.0 EmergHKVA=112.5 %R=0.87204 bus=p2rdt12884lv XHL=3.2400000000000007

New Transformer.tr(r:p2rdt12885-p2rdt12885lv) phases=1 windings=3 %loadloss=1.248151 %Noloadloss=0.68 normhkva=11.0 wdg=1 conn=wye bus=p2rdt12885.1 Kv=14.434 kva=10.0 EmergHKVA=15.0 %r=0.41605 wdg=2 conn=wye bus=p2rdt12885lv.1.0 Kv=0.12 kva=10.0 EmergHKVA=15.0 %r=0.832101 wdg=3 conn=wye bus=p2rdt12885lv.0.2 Kv=0.12 kva=10.0 EmergHKVA=15.0 %r=0.832101 XHL=1.08 XLT=1.08 XHT=0.72

New Transformer.tr(r:p2rdt12886-p2rdt12886lv) phases=3 windings=2 %loadloss=1.61095 %Noloadloss=0.62 normhkva=110.0 wdg=1 conn=delta Kv=25.0 kva=100.0 EmergHKVA=150.0 %R=0.805475 bus=p2rdt12886 wdg=2 conn=wye Kv=0.48 kva=100.0 EmergHKVA=150.0 %R=0.805475 bus=p2rdt12886lv XHL=3.29

New Transformer.tr(r:p2rdt12887-p2rdt12887lv) phases=1 windings=3 %loadloss=0.798816 %Noloadloss=0.37 normhkva=55.0 wdg=1 conn=wye bus=p2rdt12887.3 Kv=14.434 kva=50.0 EmergHKVA=75.0 %r=0.266272 wdg=2 conn=wye bus=p2rdt12887lv.1.0 Kv=0.12 kva=50.0 EmergHKVA=75.0 %r=0.532544 wdg=3 conn=wye bus=p2rdt12887lv.0.2 Kv=0.12 kva=50.0 EmergHKVA=75.0 %r=0.532544 XHL=2.4 XLT=2.4 XHT=1.6

New Transformer.tr(r:p2rdt12888-p2rdt12888lv) phases=1 windings=3 %loadloss=1.248151 %Noloadloss=0.68 normhkva=11.0 wdg=1 conn=wye bus=p2rdt12888.1 Kv=14.434 kva=10.0 EmergHKVA=15.0 %r=0.41605 wdg=2 conn=wye bus=p2rdt12888lv.1.0 Kv=0.12 kva=10.0 EmergHKVA=15.0 %r=0.832101 wdg=3 conn=wye bus=p2rdt12888lv.0.2 Kv=0.12 kva=10.0 EmergHKVA=15.0 %r=0.832101 XHL=1.08 XLT=1.08 XHT=0.72

New Transformer.tr(r:p2rdt12889-p2rdt12889lv) phases=1 windings=3 %loadloss=1.248151 %Noloadloss=0.68 normhkva=11.0 wdg=1 conn=wye bus=p2rdt12889.1 Kv=14.434 kva=10.0 EmergHKVA=15.0 %r=0.41605 wdg=2 conn=wye bus=p2rdt12889lv.1.0 Kv=0.12 kva=10.0 EmergHKVA=15.0 %r=0.832101 wdg=3 conn=wye bus=p2rdt12889lv.0.2 Kv=0.12 kva=10.0 EmergHKVA=15.0 %r=0.832101 XHL=1.08 XLT=1.08 XHT=0.72

New Transformer.tr(r:p2rdt12894-p2rdt12894lv) phases=1 windings=3 %loadloss=1.248151 %Noloadloss=0.68 normhkva=11.0 wdg=1 conn=wye bus=p2rdt12894.2 Kv=14.434 kva=10.0 EmergHKVA=15.0 %r=0.41605 wdg=2 conn=wye bus=p2rdt12894lv.1.0 Kv=0.12 kva=10.0 EmergHKVA=15.0 %r=0.832101 wdg=3 conn=wye bus=p2rdt12894lv.0.2 Kv=0.12 kva=10.0 EmergHKVA=15.0 %r=0.832101 XHL=1.08 XLT=1.08 XHT=0.72

New Transformer.tr(r:p2rdt12895-p2rdt12895lv) phases=1 windings=3 %loadloss=0.798816 %Noloadloss=0.472 normhkva=27.5 wdg=1 conn=wye bus=p2rdt12895.2 Kv=14.434 kva=25.0 EmergHKVA=37.5 %r=0.266272 wdg=2 conn=wye bus=p2rdt12895lv.1.0 Kv=0.12 kva=25.0 EmergHKVA=37.5 %r=0.532544 wdg=3 conn=wye bus=p2rdt12895lv.0.2 Kv=0.12 kva=25.0 EmergHKVA=37.5 %r=0.532544 XHL=2.4 XLT=2.4 XHT=1.6

New Transformer.tr(r:p2rdt12896-p2rdt12896lv) phases=1 windings=3 %loadloss=0.798816 %Noloadloss=0.472 normhkva=27.5 wdg=1 conn=wye bus=p2rdt12896.3 Kv=14.434 kva=25.0 EmergHKVA=37.5 %r=0.266272 wdg=2 conn=wye bus=p2rdt12896lv.1.0 Kv=0.12 kva=25.0 EmergHKVA=37.5 %r=0.532544 wdg=3 conn=wye bus=p2rdt12896lv.0.2 Kv=0.12 kva=25.0 EmergHKVA=37.5 %r=0.532544 XHL=2.4 XLT=2.4 XHT=1.6

New Transformer.tr(r:p2rdt12897-p2rdt12897lv) phases=1 windings=3 %loadloss=0.798816 %Noloadloss=0.472 normhkva=27.5 wdg=1 conn=wye bus=p2rdt12897.3 Kv=14.434 kva=25.0 EmergHKVA=37.5 %r=0.266272 wdg=2 conn=wye bus=p2rdt12897lv.1.0 Kv=0.12 kva=25.0 EmergHKVA=37.5 %r=0.532544 wdg=3 conn=wye bus=p2rdt12897lv.0.2 Kv=0.12 kva=25.0 EmergHKVA=37.5 %r=0.532544 XHL=2.4 XLT=2.4 XHT=1.6

New Transformer.tr(r:p2rdt12898-p2rdt12898lv) phases=1 windings=3 %loadloss=0.798816 %Noloadloss=0.37 normhkva=55.0 wdg=1 conn=wye bus=p2rdt12898.3 Kv=14.434 kva=50.0 EmergHKVA=75.0 %r=0.266272 wdg=2 conn=wye bus=p2rdt12898lv.1.0 Kv=0.12 kva=50.0 EmergHKVA=75.0 %r=0.532544 wdg=3 conn=wye bus=p2rdt12898lv.0.2 Kv=0.12 kva=50.0 EmergHKVA=75.0 %r=0.532544 XHL=2.4 XLT=2.4 XHT=1.6

New Transformer.tr(r:p2rdt12899-p2rdt12899lv) phases=1 windings=3 %loadloss=1.248151 %Noloadloss=0.68 normhkva=11.0 wdg=1 conn=wye bus=p2rdt12899.3 Kv=14.434 kva=10.0 EmergHKVA=15.0 %r=0.41605 wdg=2 conn=wye bus=p2rdt12899lv.1.0 Kv=0.12 kva=10.0 EmergHKVA=15.0 %r=0.832101 wdg=3 conn=wye bus=p2rdt12899lv.0.2 Kv=0.12 kva=10.0 EmergHKVA=15.0 %r=0.832101 XHL=1.08 XLT=1.08 XHT=0.72

New Transformer.tr(r:p2rdt12900-p2rdt12900lv) phases=1 windings=3 %loadloss=0.798816 %Noloadloss=0.472 normhkva=27.5 wdg=1 conn=wye bus=p2rdt12900.3 Kv=14.434 kva=25.0 EmergHKVA=37.5 %r=0.266272 wdg=2 conn=wye bus=p2rdt12900lv.1.0 Kv=0.12 kva=25.0 EmergHKVA=37.5 %r=0.532544 wdg=3 conn=wye bus=p2rdt12900lv.0.2 Kv=0.12 kva=25.0 EmergHKVA=37.5 %r=0.532544 XHL=2.4 XLT=2.4 XHT=1.6

New Transformer.tr(r:p2rdt12901-p2rdt12901lv) phases=3 windings=2 %loadloss=2.1568 %Noloadloss=0.516667 normhkva=165.0 wdg=1 conn=delta Kv=25.0 kva=150.0 EmergHKVA=225.0 %R=1.0784 bus=p2rdt12901 wdg=2 conn=wye Kv=0.48 kva=150.0 EmergHKVA=225.0 %R=1.0784 bus=p2rdt12901lv XHL=3.39

New Transformer.tr(r:p2rdt12902-p2rdt12902lv) phases=1 windings=3 %loadloss=0.798816 %Noloadloss=0.37 normhkva=55.0 wdg=1 conn=wye bus=p2rdt12902.3 Kv=14.434 kva=50.0 EmergHKVA=75.0 %r=0.266272 wdg=2 conn=wye bus=p2rdt12902lv.1.0 Kv=0.12 kva=50.0 EmergHKVA=75.0 %r=0.532544 wdg=3 conn=wye bus=p2rdt12902lv.0.2 Kv=0.12 kva=50.0 EmergHKVA=75.0 %r=0.532544 XHL=2.4 XLT=2.4 XHT=1.6

New Transformer.tr(r:p2rdt12903-p2rdt12903lv) phases=1 windings=3 %loadloss=1.248151 %Noloadloss=0.68 normhkva=11.0 wdg=1 conn=wye bus=p2rdt12903.1 Kv=14.434 kva=10.0 EmergHKVA=15.0 %r=0.41605 wdg=2 conn=wye bus=p2rdt12903lv.1.0 Kv=0.12 kva=10.0 EmergHKVA=15.0 %r=0.832101 wdg=3 conn=wye bus=p2rdt12903lv.0.2 Kv=0.12 kva=10.0 EmergHKVA=15.0 %r=0.832101 XHL=1.08 XLT=1.08 XHT=0.72

New Transformer.tr(r:p2rdt12904-p2rdt12904lv) phases=1 windings=3 %loadloss=0.798816 %Noloadloss=0.37 normhkva=55.0 wdg=1 conn=wye bus=p2rdt12904.2 Kv=14.434 kva=50.0 EmergHKVA=75.0 %r=0.266272 wdg=2 conn=wye bus=p2rdt12904lv.1.0 Kv=0.12 kva=50.0 EmergHKVA=75.0 %r=0.532544 wdg=3 conn=wye bus=p2rdt12904lv.0.2 Kv=0.12 kva=50.0 EmergHKVA=75.0 %r=0.532544 XHL=2.4 XLT=2.4 XHT=1.6

New Transformer.tr(r:p2rdt12905-p2rdt12905lv) phases=1 windings=3 %loadloss=0.798816 %Noloadloss=0.472 normhkva=27.5 wdg=1 conn=wye bus=p2rdt12905.2 Kv=14.434 kva=25.0 EmergHKVA=37.5 %r=0.266272 wdg=2 conn=wye bus=p2rdt12905lv.1.0 Kv=0.12 kva=25.0 EmergHKVA=37.5 %r=0.532544 wdg=3 conn=wye bus=p2rdt12905lv.0.2 Kv=0.12 kva=25.0 EmergHKVA=37.5 %r=0.532544 XHL=2.4 XLT=2.4 XHT=1.6

New Transformer.tr(r:p2rdt12906-p2rdt12906lv) phases=1 windings=3 %loadloss=0.798816 %Noloadloss=0.472 normhkva=27.5 wdg=1 conn=wye bus=p2rdt12906.1 Kv=14.434 kva=25.0 EmergHKVA=37.5 %r=0.266272 wdg=2 conn=wye bus=p2rdt12906lv.1.0 Kv=0.12 kva=25.0 EmergHKVA=37.5 %r=0.532544 wdg=3 conn=wye bus=p2rdt12906lv.0.2 Kv=0.12 kva=25.0 EmergHKVA=37.5 %r=0.532544 XHL=2.4 XLT=2.4 XHT=1.6

New Transformer.tr(r:p2rdt12907-p2rdt12907lv) phases=1 windings=3 %loadloss=1.248151 %Noloadloss=0.68 normhkva=11.0 wdg=1 conn=wye bus=p2rdt12907.3 Kv=14.434 kva=10.0 EmergHKVA=15.0 %r=0.41605 wdg=2 conn=wye bus=p2rdt12907lv.1.0 Kv=0.12 kva=10.0 EmergHKVA=15.0 %r=0.832101 wdg=3 conn=wye bus=p2rdt12907lv.0.2 Kv=0.12 kva=10.0 EmergHKVA=15.0 %r=0.832101 XHL=1.08 XLT=1.08 XHT=0.72

New Transformer.tr(r:p2rdt12908-p2rdt12908lv) phases=1 windings=3 %loadloss=0.798816 %Noloadloss=0.472 normhkva=27.5 wdg=1 conn=wye bus=p2rdt12908.1 Kv=14.434 kva=25.0 EmergHKVA=37.5 %r=0.266272 wdg=2 conn=wye bus=p2rdt12908lv.1.0 Kv=0.12 kva=25.0 EmergHKVA=37.5 %r=0.532544 wdg=3 conn=wye bus=p2rdt12908lv.0.2 Kv=0.12 kva=25.0 EmergHKVA=37.5 %r=0.532544 XHL=2.4 XLT=2.4 XHT=1.6

New Transformer.tr(r:p2rdt12909-p2rdt12909lv) phases=1 windings=3 %loadloss=1.248151 %Noloadloss=0.68 normhkva=11.0 wdg=1 conn=wye bus=p2rdt12909.1 Kv=14.434 kva=10.0 EmergHKVA=15.0 %r=0.41605 wdg=2 conn=wye bus=p2rdt12909lv.1.0 Kv=0.12 kva=10.0 EmergHKVA=15.0 %r=0.832101 wdg=3 conn=wye bus=p2rdt12909lv.0.2 Kv=0.12 kva=10.0 EmergHKVA=15.0 %r=0.832101 XHL=1.08 XLT=1.08 XHT=0.72

New Transformer.tr(r:p2rdt12910-p2rdt12910lv) phases=1 windings=3 %loadloss=0.798816 %Noloadloss=0.37 normhkva=55.0 wdg=1 conn=wye bus=p2rdt12910.2 Kv=14.434 kva=50.0 EmergHKVA=75.0 %r=0.266272 wdg=2 conn=wye bus=p2rdt12910lv.1.0 Kv=0.12 kva=50.0 EmergHKVA=75.0 %r=0.532544 wdg=3 conn=wye bus=p2rdt12910lv.0.2 Kv=0.12 kva=50.0 EmergHKVA=75.0 %r=0.532544 XHL=2.4 XLT=2.4 XHT=1.6

New Transformer.tr(r:p2rdt12911-p2rdt12911lv) phases=1 windings=3 %loadloss=0.798816 %Noloadloss=0.37 normhkva=55.0 wdg=1 conn=wye bus=p2rdt12911.2 Kv=14.434 kva=50.0 EmergHKVA=75.0 %r=0.266272 wdg=2 conn=wye bus=p2rdt12911lv.1.0 Kv=0.12 kva=50.0 EmergHKVA=75.0 %r=0.532544 wdg=3 conn=wye bus=p2rdt12911lv.0.2 Kv=0.12 kva=50.0 EmergHKVA=75.0 %r=0.532544 XHL=2.4 XLT=2.4 XHT=1.6

New Transformer.tr(r:p2rdt12912-p2rdt12912lv) phases=1 windings=3 %loadloss=0.798816 %Noloadloss=0.472 normhkva=27.5 wdg=1 conn=wye bus=p2rdt12912.2 Kv=14.434 kva=25.0 EmergHKVA=37.5 %r=0.266272 wdg=2 conn=wye bus=p2rdt12912lv.1.0 Kv=0.12 kva=25.0 EmergHKVA=37.5 %r=0.532544 wdg=3 conn=wye bus=p2rdt12912lv.0.2 Kv=0.12 kva=25.0 EmergHKVA=37.5 %r=0.532544 XHL=2.4 XLT=2.4 XHT=1.6

New Transformer.tr(r:p2rdt12913-p2rdt12913lv) phases=1 windings=3 %loadloss=0.798816 %Noloadloss=0.472 normhkva=27.5 wdg=1 conn=wye bus=p2rdt12913.3 Kv=14.434 kva=25.0 EmergHKVA=37.5 %r=0.266272 wdg=2 conn=wye bus=p2rdt12913lv.1.0 Kv=0.12 kva=25.0 EmergHKVA=37.5 %r=0.532544 wdg=3 conn=wye bus=p2rdt12913lv.0.2 Kv=0.12 kva=25.0 EmergHKVA=37.5 %r=0.532544 XHL=2.4 XLT=2.4 XHT=1.6

New Transformer.tr(r:p2rdt12914-p2rdt12914lv) phases=1 windings=3 %loadloss=0.49926 %Noloadloss=0.38 normhkva=82.5 wdg=1 conn=wye bus=p2rdt12914.2 Kv=14.434 kva=75.0 EmergHKVA=112.5 %r=0.16642 wdg=2 conn=wye bus=p2rdt12914lv.1.0 Kv=0.12 kva=75.0 EmergHKVA=112.5 %r=0.33284 wdg=3 conn=wye bus=p2rdt12914lv.0.2 Kv=0.12 kva=75.0 EmergHKVA=112.5 %r=0.33284 XHL=2.4 XLT=2.4 XHT=1.6

New Transformer.tr(r:p2rdt12915-p2rdt12915lv) phases=1 windings=3 %loadloss=0.798816 %Noloadloss=0.472 normhkva=27.5 wdg=1 conn=wye bus=p2rdt12915.3 Kv=14.434 kva=25.0 EmergHKVA=37.5 %r=0.266272 wdg=2 conn=wye bus=p2rdt12915lv.1.0 Kv=0.12 kva=25.0 EmergHKVA=37.5 %r=0.532544 wdg=3 conn=wye bus=p2rdt12915lv.0.2 Kv=0.12 kva=25.0 EmergHKVA=37.5 %r=0.532544 XHL=2.4 XLT=2.4 XHT=1.6

New Transformer.tr(r:p2rdt12916-p2rdt12916lv) phases=1 windings=3 %loadloss=1.248151 %Noloadloss=0.68 normhkva=11.0 wdg=1 conn=wye bus=p2rdt12916.3 Kv=14.434 kva=10.0 EmergHKVA=15.0 %r=0.41605 wdg=2 conn=wye bus=p2rdt12916lv.1.0 Kv=0.12 kva=10.0 EmergHKVA=15.0 %r=0.832101 wdg=3 conn=wye bus=p2rdt12916lv.0.2 Kv=0.12 kva=10.0 EmergHKVA=15.0 %r=0.832101 XHL=1.08 XLT=1.08 XHT=0.72

New Transformer.tr(r:p2rdt12917-p2rdt12917lv) phases=1 windings=3 %loadloss=1.248151 %Noloadloss=0.68 normhkva=11.0 wdg=1 conn=wye bus=p2rdt12917.1 Kv=14.434 kva=10.0 EmergHKVA=15.0 %r=0.41605 wdg=2 conn=wye bus=p2rdt12917lv.1.0 Kv=0.12 kva=10.0 EmergHKVA=15.0 %r=0.832101 wdg=3 conn=wye bus=p2rdt12917lv.0.2 Kv=0.12 kva=10.0 EmergHKVA=15.0 %r=0.832101 XHL=1.08 XLT=1.08 XHT=0.72

New Transformer.tr(r:p2rdt12918-p2rdt12918lv) phases=1 windings=3 %loadloss=0.798816 %Noloadloss=0.472 normhkva=27.5 wdg=1 conn=wye bus=p2rdt12918.2 Kv=14.434 kva=25.0 EmergHKVA=37.5 %r=0.266272 wdg=2 conn=wye bus=p2rdt12918lv.1.0 Kv=0.12 kva=25.0 EmergHKVA=37.5 %r=0.532544 wdg=3 conn=wye bus=p2rdt12918lv.0.2 Kv=0.12 kva=25.0 EmergHKVA=37.5 %r=0.532544 XHL=2.4 XLT=2.4 XHT=1.6

New Transformer.tr(r:p2rdt12919-p2rdt12919lv) phases=1 windings=3 %loadloss=1.248151 %Noloadloss=0.68 normhkva=11.0 wdg=1 conn=wye bus=p2rdt12919.2 Kv=14.434 kva=10.0 EmergHKVA=15.0 %r=0.41605 wdg=2 conn=wye bus=p2rdt12919lv.1.0 Kv=0.12 kva=10.0 EmergHKVA=15.0 %r=0.832101 wdg=3 conn=wye bus=p2rdt12919lv.0.2 Kv=0.12 kva=10.0 EmergHKVA=15.0 %r=0.832101 XHL=1.08 XLT=1.08 XHT=0.72

New Transformer.tr(r:p2rdt12920-p2rdt12920lv) phases=1 windings=3 %loadloss=0.798816 %Noloadloss=0.472 normhkva=27.5 wdg=1 conn=wye bus=p2rdt12920.3 Kv=14.434 kva=25.0 EmergHKVA=37.5 %r=0.266272 wdg=2 conn=wye bus=p2rdt12920lv.1.0 Kv=0.12 kva=25.0 EmergHKVA=37.5 %r=0.532544 wdg=3 conn=wye bus=p2rdt12920lv.0.2 Kv=0.12 kva=25.0 EmergHKVA=37.5 %r=0.532544 XHL=2.4 XLT=2.4 XHT=1.6

New Transformer.tr(r:p2rdt12921-p2rdt12921lv) phases=1 windings=3 %loadloss=0.798816 %Noloadloss=0.37 normhkva=55.0 wdg=1 conn=wye bus=p2rdt12921.3 Kv=14.434 kva=50.0 EmergHKVA=75.0 %r=0.266272 wdg=2 conn=wye bus=p2rdt12921lv.1.0 Kv=0.12 kva=50.0 EmergHKVA=75.0 %r=0.532544 wdg=3 conn=wye bus=p2rdt12921lv.0.2 Kv=0.12 kva=50.0 EmergHKVA=75.0 %r=0.532544 XHL=2.4 XLT=2.4 XHT=1.6

New Transformer.tr(r:p2rdt12922-p2rdt12922lv) phases=1 windings=3 %loadloss=1.248151 %Noloadloss=0.68 normhkva=11.0 wdg=1 conn=wye bus=p2rdt12922.1 Kv=14.434 kva=10.0 EmergHKVA=15.0 %r=0.41605 wdg=2 conn=wye bus=p2rdt12922lv.1.0 Kv=0.12 kva=10.0 EmergHKVA=15.0 %r=0.832101 wdg=3 conn=wye bus=p2rdt12922lv.0.2 Kv=0.12 kva=10.0 EmergHKVA=15.0 %r=0.832101 XHL=1.08 XLT=1.08 XHT=0.72

New Transformer.tr(r:p2rdt12923-p2rdt12923lv) phases=1 windings=3 %loadloss=0.798816 %Noloadloss=0.472 normhkva=27.5 wdg=1 conn=wye bus=p2rdt12923.1 Kv=14.434 kva=25.0 EmergHKVA=37.5 %r=0.266272 wdg=2 conn=wye bus=p2rdt12923lv.1.0 Kv=0.12 kva=25.0 EmergHKVA=37.5 %r=0.532544 wdg=3 conn=wye bus=p2rdt12923lv.0.2 Kv=0.12 kva=25.0 EmergHKVA=37.5 %r=0.532544 XHL=2.4 XLT=2.4 XHT=1.6

New Transformer.tr(r:p2rdt12924-p2rdt12924lv) phases=1 windings=3 %loadloss=0.798816 %Noloadloss=0.472 normhkva=27.5 wdg=1 conn=wye bus=p2rdt12924.2 Kv=14.434 kva=25.0 EmergHKVA=37.5 %r=0.266272 wdg=2 conn=wye bus=p2rdt12924lv.1.0 Kv=0.12 kva=25.0 EmergHKVA=37.5 %r=0.532544 wdg=3 conn=wye bus=p2rdt12924lv.0.2 Kv=0.12 kva=25.0 EmergHKVA=37.5 %r=0.532544 XHL=2.4 XLT=2.4 XHT=1.6

New Transformer.tr(r:p2rdt12925-p2rdt12925lv) phases=1 windings=3 %loadloss=0.798816 %Noloadloss=0.472 normhkva=27.5 wdg=1 conn=wye bus=p2rdt12925.1 Kv=14.434 kva=25.0 EmergHKVA=37.5 %r=0.266272 wdg=2 conn=wye bus=p2rdt12925lv.1.0 Kv=0.12 kva=25.0 EmergHKVA=37.5 %r=0.532544 wdg=3 conn=wye bus=p2rdt12925lv.0.2 Kv=0.12 kva=25.0 EmergHKVA=37.5 %r=0.532544 XHL=2.4 XLT=2.4 XHT=1.6

New Transformer.tr(r:p2rdt12926-p2rdt12926lv) phases=3 windings=2 %loadloss=1.74408 %Noloadloss=0.6 normhkva=82.5 wdg=1 conn=delta Kv=25.0 kva=75.0 EmergHKVA=112.5 %R=0.87204 bus=p2rdt12926 wdg=2 conn=wye Kv=0.48 kva=75.0 EmergHKVA=112.5 %R=0.87204 bus=p2rdt12926lv XHL=3.2400000000000007

New Transformer.tr(r:p2rdt12927-p2rdt12927lv) phases=1 windings=3 %loadloss=0.798816 %Noloadloss=0.37 normhkva=55.0 wdg=1 conn=wye bus=p2rdt12927.3 Kv=14.434 kva=50.0 EmergHKVA=75.0 %r=0.266272 wdg=2 conn=wye bus=p2rdt12927lv.1.0 Kv=0.12 kva=50.0 EmergHKVA=75.0 %r=0.532544 wdg=3 conn=wye bus=p2rdt12927lv.0.2 Kv=0.12 kva=50.0 EmergHKVA=75.0 %r=0.532544 XHL=2.4 XLT=2.4 XHT=1.6

New Transformer.tr(r:p2rdt12928-p2rdt12928lv) phases=1 windings=3 %loadloss=0.798816 %Noloadloss=0.472 normhkva=27.5 wdg=1 conn=wye bus=p2rdt12928.1 Kv=14.434 kva=25.0 EmergHKVA=37.5 %r=0.266272 wdg=2 conn=wye bus=p2rdt12928lv.1.0 Kv=0.12 kva=25.0 EmergHKVA=37.5 %r=0.532544 wdg=3 conn=wye bus=p2rdt12928lv.0.2 Kv=0.12 kva=25.0 EmergHKVA=37.5 %r=0.532544 XHL=2.4 XLT=2.4 XHT=1.6

New Transformer.tr(r:p2rdt12929-p2rdt12929lv) phases=1 windings=3 %loadloss=1.248151 %Noloadloss=0.68 normhkva=11.0 wdg=1 conn=wye bus=p2rdt12929.1 Kv=14.434 kva=10.0 EmergHKVA=15.0 %r=0.41605 wdg=2 conn=wye bus=p2rdt12929lv.1.0 Kv=0.12 kva=10.0 EmergHKVA=15.0 %r=0.832101 wdg=3 conn=wye bus=p2rdt12929lv.0.2 Kv=0.12 kva=10.0 EmergHKVA=15.0 %r=0.832101 XHL=1.08 XLT=1.08 XHT=0.72

New Transformer.tr(r:p2rdt12930-p2rdt12930lv) phases=1 windings=3 %loadloss=1.248151 %Noloadloss=0.68 normhkva=11.0 wdg=1 conn=wye bus=p2rdt12930.1 Kv=14.434 kva=10.0 EmergHKVA=15.0 %r=0.41605 wdg=2 conn=wye bus=p2rdt12930lv.1.0 Kv=0.12 kva=10.0 EmergHKVA=15.0 %r=0.832101 wdg=3 conn=wye bus=p2rdt12930lv.0.2 Kv=0.12 kva=10.0 EmergHKVA=15.0 %r=0.832101 XHL=1.08 XLT=1.08 XHT=0.72

New Transformer.tr(r:p2rdt12931-p2rdt12931lv) phases=1 windings=3 %loadloss=1.248151 %Noloadloss=0.68 normhkva=11.0 wdg=1 conn=wye bus=p2rdt12931.1 Kv=14.434 kva=10.0 EmergHKVA=15.0 %r=0.41605 wdg=2 conn=wye bus=p2rdt12931lv.1.0 Kv=0.12 kva=10.0 EmergHKVA=15.0 %r=0.832101 wdg=3 conn=wye bus=p2rdt12931lv.0.2 Kv=0.12 kva=10.0 EmergHKVA=15.0 %r=0.832101 XHL=1.08 XLT=1.08 XHT=0.72

New Transformer.tr(r:p2rdt12932-p2rdt12932lv) phases=1 windings=3 %loadloss=1.248151 %Noloadloss=0.68 normhkva=11.0 wdg=1 conn=wye bus=p2rdt12932.3 Kv=14.434 kva=25.0 EmergHKVA=15.0 %r=0.41605 wdg=2 conn=wye bus=p2rdt12932lv.1.0 Kv=0.12 kva=25.0 EmergHKVA=15.0 %r=0.832101 wdg=3 conn=wye bus=p2rdt12932lv.0.2 Kv=0.12 kva=25.0 EmergHKVA=15.0 %r=0.832101 XHL=1.08 XLT=1.08 XHT=0.72

...